<?xml version="1.0"?>

<!-- generated on 06/14/10 11:03:20 by SUMO duarouter Version 0.11.1
<configuration>

    <input>
        <net-file value="D:\SW\mapas\tl2\malaga-alameda\40\alameda.net.xml"/>
    </input>

    <output>
        <output-file value=".\..\examples\vehicleroutes\alameda.rou.xml"/>
    </output>

    <processing>
        <random-per-second value="330"/>
    </processing>

    <time>
        <begin value="0"/>
        <end value="10"/>
    </time>

    <random_number>
        <abs-rand value="true"/>
    </random_number>

</configuration>
-->

<routes>
   <vehicle id="Rand0" depart="0">
      <route edges="27617819#2 27617819#3 27617819#4 35900343#4"/>
   </vehicle>
   <vehicle id="Rand1" depart="0">
      <route edges="35901888#0 35773427#6 35773427#7 35900343#2 35900343#3 35903165#0 35903165#1 35903165#2 35903166#0 35903166#1 27131168#0 27131168#1 27131168#2 27131168#3 27131168#4 27131168#5"/>
   </vehicle>
   <vehicle id="Rand10" depart="0">
      <route edges="35901640#3 35901640#4 35901640#5 35901640#6 35901640#0 35901640#1 30098199#0 30098199#1 35903166#0 35903166#1 27131168#0 27131168#1"/>
   </vehicle>
   <vehicle id="Rand100" depart="0">
      <route edges="27617850#1 27617850#2 27617850#3 -30098184#5 -30098184#4 -30098184#3 -30098184#2 -30098184#1 -30098184#0 35900343#3 35900343#4 35901640#5 35901640#6 35901640#0 35901640#1 -61424033#1 27617828#0 -61291538"/>
   </vehicle>
   <vehicle id="Rand101" depart="0">
      <route edges="35903165#1 35903165#2 30098199#2 30098199#3 30098199#4 30098199#5 30098199#6 35900343#0 35900343#1 35900343#2 30098184#0 30098184#1 30098184#2 30098184#3 30098184#4 35902033#1"/>
   </vehicle>
   <vehicle id="Rand102" depart="0">
      <route edges="35903166#0 35903166#1 27131168#0 27131168#1 27131168#2 27131168#3 27131168#4 35903338#0 35903338#1 30098199#5 30098199#6 35900343#0 35900343#1 35900343#2 35900343#3 35900343#4 35901640#5 35901833#0 -43512942#2 -43512942#1+61326131#5 -61326131#5+43512942#1"/>
   </vehicle>
   <vehicle id="Rand103" depart="0">
      <route edges="27617850#0 27617850#1 27617850#2 27617850#3 -30098184#5 -30098184#4 -30098184#3 -30098184#2 -30098184#1 -30098184#0 35900343#3 35900343#4 35901640#5 35901640#6 35901640#0"/>
   </vehicle>
   <vehicle id="Rand105" depart="0">
      <route edges="27617860 27617819#0 27617819#1 27617819#2 27617819#3 27617819#4 35903165#0 35903165#1 35903165#2 30098199#2 30098199#3 30098199#4 30098199#5 30098199#6 35900343#0 34474997#0 34474997#1 34474997#2"/>
   </vehicle>
   <vehicle id="Rand106" depart="0">
      <route edges="-30098185#2 30098185#2 -30098184#3 -30098184#2 -30098184#1 -30098184#0 35900343#3 35900343#4 35901640#5 35901640#6 35901640#0 35901640#1 -61424033#1 27617828#0 27617828#1"/>
   </vehicle>
   <vehicle id="Rand107" depart="0">
      <route edges="-35773427#4 35773427#4 35773427#5 35773427#6 35773427#7 35900343#2 35900343#3 35903165#0"/>
   </vehicle>
   <vehicle id="Rand108" depart="0">
      <route edges="35903165#0 35903165#1 35903165#2 30098199#2 30098199#3 30098199#4 30098199#5 30098199#6 35900343#0 34474997#0 34474997#1 34474997#2 34474997#3 34474997#4 34474997#5 -27617865#2"/>
   </vehicle>
   <vehicle id="Rand11" depart="0">
      <route edges="-27617819#2 27617819#2 27617819#3 27617819#4 35903165#0 35903165#1 35903165#2 30098199#2 30098199#3 30098199#4"/>
   </vehicle>
   <vehicle id="Rand110" depart="0">
      <route edges="35900161 -35900161 35901888#0 35773427#6 35773427#7 35900343#2 35900343#3 35903165#0 35903165#1 35903165#2 35903166#0 35903166#1 27131168#0 27131168#1 27131168#2 27131168#3"/>
   </vehicle>
   <vehicle id="Rand111" depart="0">
      <route edges="52491207 61335135#0 35903338#1 30098199#5 30098199#6 35900343#0 34474997#0 34474997#1 34474997#2 34474997#3 34474997#4 34474997#5 -27617865#2 -27617865#1 -27617865#0 27617850#3 -27617850#3"/>
   </vehicle>
   <vehicle id="Rand112" depart="0">
      <route edges="61326131#3 -61326131#3 -61326131#2+23162032#0 -61326131#1+23162032#1 23162032#2 -35901912#1 35901883#0 27617819#2 27617819#3 27617819#4 35900343#4 35901640#5 35901640#6 35901640#0 35901640#1 -61424033#1 -61424033#0 61424033#0"/>
   </vehicle>
   <vehicle id="Rand113" depart="0">
      <route edges="61335135#1 61335135#2 35903198#1 27131168#2"/>
   </vehicle>
   <vehicle id="Rand114" depart="0">
      <route edges="35901912#2 -35901912#2 23162032#3 23162032#4 23162032#5 23162032#6 23162032#7"/>
   </vehicle>
   <vehicle id="Rand115" depart="0">
      <route edges="27617860 27617819#0 27617819#1 27617819#2 27617819#3 27617819#4 35900343#4 35901640#5 35901640#6 35901640#0 35901640#1"/>
   </vehicle>
   <vehicle id="Rand116" depart="0">
      <route edges="-61279142#0 61279142#0 61278965 27131168#2 27131168#3 27131168#4 35903338#0 35903338#1 30098199#5 23161464#2"/>
   </vehicle>
   <vehicle id="Rand118" depart="0">
      <route edges="27617819#0 27617819#1 27617819#2 27617819#3 27617819#4 35900343#4 35901640#5 35901640#6 35901640#0 35901640#1 -61424033#1 27617828#0"/>
   </vehicle>
   <vehicle id="Rand119" depart="0">
      <route edges="30098185#1 30098185#2 -30098184#3 -30098184#2 -30098184#1 -30098184#0 35900343#3 35900343#4 35901640#5 35901833#0 -43512942#2 -43512942#1+61326131#5 -43512942#0+61326131#6 61326131#0 23162032#2"/>
   </vehicle>
   <vehicle id="Rand12" depart="0">
      <route edges="35903288#1 27131168#3 27131168#4 35903338#0 35903338#1 30098199#5 30098199#6 35900343#0 34474997#0 34474997#1 34474997#2 34474997#3 34474997#4 34474997#5 -27617865#2 -27617865#1 -27617865#0 27617850#3 30098184#6 -30098184#6"/>
   </vehicle>
   <vehicle id="Rand120" depart="0">
      <route edges="35901640#4 35901640#5 35901640#6 35901640#0 35901640#1 -61424033#1 61424033#1"/>
   </vehicle>
   <vehicle id="Rand121" depart="0">
      <route edges="-61326131#1+23162032#1 23162032#2 -35901912#1 35901883#0 27617819#2 27617819#3 27617819#4 35903165#0 35903165#1 35903165#2 30098199#2 30098199#3 30098199#4 30098199#5 30098199#6 35900338#1"/>
   </vehicle>
   <vehicle id="Rand122" depart="0">
      <route edges="27131168#2 27131168#3 27131168#4 35903338#0 35903338#1 30098199#5 30098199#6 35900343#0 34474997#0 34474997#1 34474997#2 34474997#3 30098185#0 -35773427#3"/>
   </vehicle>
   <vehicle id="Rand123" depart="0">
      <route edges="-35901912#1 35901912#1 23162032#3 23162032#4 -30098184#6 27617850#4 -27617850#4"/>
   </vehicle>
   <vehicle id="Rand124" depart="0">
      <route edges="35902033#1 35902033#2 -35773427#2 -35773427#1"/>
   </vehicle>
   <vehicle id="Rand125" depart="0">
      <route edges="30098185#3 27617819#1 27617819#2 27617819#3 27617819#4 35903165#0 35903165#1 35903165#2 35903166#0 35903166#1 27131168#0 27131168#1 -35903198#1"/>
   </vehicle>
   <vehicle id="Rand126" depart="0">
      <route edges="61326131#2 -61326131#2+23162032#0 -61326131#1+23162032#1 23162032#2 -35901912#1 35901883#0 35901883#1 35901883#2 35901883#3 35773427#5 35901888#1"/>
   </vehicle>
   <vehicle id="Rand127" depart="0">
      <route edges="-27617819#2 27617819#2 27617819#3 27617819#4 35903165#0 35903165#1 35903165#2 35903166#0 35903166#1 -43512899"/>
   </vehicle>
   <vehicle id="Rand128" depart="0">
      <route edges="27617850#0 27617850#1 27617850#2 27617865#0 35902125#2 35902125#3"/>
   </vehicle>
   <vehicle id="Rand129" depart="0">
      <route edges="35901883#1 -30098184#2 -30098184#1 -30098184#0 35900343#3 35903165#0 35903165#1 35903165#2 30098199#2 30098199#3 30098199#4 30098199#5 30098199#6 35900343#0 35900343#1"/>
   </vehicle>
   <vehicle id="Rand13" depart="0">
      <route edges="-35773427#1 27617850#1 27617850#2"/>
   </vehicle>
   <vehicle id="Rand130" depart="0">
      <route edges="35901640#5 35901833#0 -43512942#2 -43512942#1+61326131#5 -43512942#0+61326131#6 61326131#0 23162032#2 23162032#3 23162032#4 -30098184#6 -27617850#3"/>
   </vehicle>
   <vehicle id="Rand131" depart="0">
      <route edges="-35773427#0 35773427#0 27617850#1 27617850#2 27617850#3 -30098184#5 -30098184#4 -30098184#3 -30098184#2 -30098184#1 -30098184#0 35900343#3 35903165#0 35903165#1 35903165#2 35903166#0 35903166#1 27131168#0 -61334631 61334631"/>
   </vehicle>
   <vehicle id="Rand132" depart="0">
      <route edges="35901883#2 35901883#3 35901883#4"/>
   </vehicle>
   <vehicle id="Rand133" depart="0">
      <route edges="-61326131#0+35782161#0 61326131#0 61326131#1"/>
   </vehicle>
   <vehicle id="Rand134" depart="0">
      <route edges="27131168#1 27131168#2 27131168#3 27131168#4 35903338#0 35903338#1 30098199#5 30098199#6 35900343#0 34474997#0 34474997#1 34474997#2 34474997#3 34474997#4 34474997#5 -27617865#2 35773427#2"/>
   </vehicle>
   <vehicle id="Rand135" depart="0">
      <route edges="35901883#0 27617819#2 27617819#3 27617819#4 35903165#0 35903165#1 35903165#2 35903166#0 35903166#1 27131168#0 27131168#1 27131168#2 27131168#3 27131168#4"/>
   </vehicle>
   <vehicle id="Rand136" depart="0">
      <route edges="35902785#2 -35901912#2 -35901912#1 35901883#0 27617819#2 27617819#3 27617819#4 35903165#0 35903165#1 35903165#2 30098199#2 30098199#3 30098199#4 30098199#5 30098199#6 35900343#0 35900343#1 35900343#2"/>
   </vehicle>
   <vehicle id="Rand137" depart="0">
      <route edges="27617850#2 27617850#3 27617850#4"/>
   </vehicle>
   <vehicle id="Rand138" depart="0">
      <route edges="-35773427#3 -35773427#2 -27617865#1 -27617865#0 27617850#3 30098184#6 -30098184#6"/>
   </vehicle>
   <vehicle id="Rand139" depart="0">
      <route edges="61279142#0 61278965 27131168#2 27131168#3 27131168#4 35903338#0 35903338#1 30098199#5 30098199#6 35900343#0 34474997#0 34474997#1 35901888#0 -35773427#5 35773427#5"/>
   </vehicle>
   <vehicle id="Rand14" depart="0">
      <route edges="35773427#0 27617850#1 27617850#2 27617850#3 -30098184#5 30098184#5"/>
   </vehicle>
   <vehicle id="Rand140" depart="0">
      <route edges="30098184#3 30098185#3 27617819#1 27617819#2 27617819#3"/>
   </vehicle>
   <vehicle id="Rand141" depart="0">
      <route edges="23162032#6 35773427#0 27617850#1 27617850#2 27617850#3 -30098184#5 -30098184#4 -30098184#3 -30098184#2 -30098184#1 -30098184#0 35900343#3 35900343#4 35901640#5 35901833#0 -43512942#2 -43512942#1+61326131#5 -43512942#0+61326131#6 -61326131#6+43512942#0"/>
   </vehicle>
   <vehicle id="Rand142" depart="0">
      <route edges="27617850#4 35902033#0 35902033#1 35902033#2 35773427#3 35773427#4 35773427#5 35901888#1"/>
   </vehicle>
   <vehicle id="Rand143" depart="0">
      <route edges="23162032#2 23162032#3 23162032#4 23162032#5 35902125#0 27617850#2 27617865#0 27617865#1 -35773427#1"/>
   </vehicle>
   <vehicle id="Rand144" depart="0">
      <route edges="-61326131#0+35782161#0 61326131#0 23162032#2 -35901912#1 35901883#0 27617819#2 27617819#3 27617819#4 35903165#0 35903165#1 35903165#2 30098199#2 35903198#0"/>
   </vehicle>
   <vehicle id="Rand145" depart="0">
      <route edges="43512942#2 -43512942#2 -43512942#1+61326131#5 -43512942#0+61326131#6 61326131#0 23162032#2 35901912#2"/>
   </vehicle>
   <vehicle id="Rand146" depart="0">
      <route edges="35902033#3 34474997#5 -27617865#2 35773427#2 35773427#3 35773427#4 35773427#5 35773427#6 35773427#7 35900343#2 35900343#3 35900343#4 35901640#5 35901640#6"/>
   </vehicle>
   <vehicle id="Rand147" depart="0">
      <route edges="-35773427#2 -27617865#1 -27617865#0 27617850#3 27617850#4 27617860 27617819#0 27617819#1 27617819#2 35901888#3 35901912#0 35901912#1 -35901912#1"/>
   </vehicle>
   <vehicle id="Rand148" depart="0">
      <route edges="27617865#0 -27617865#0 27617850#3 -30098184#5 -30098184#4 -30098184#3 -30098184#2 -30098184#1 -30098184#0 35900343#3 35903165#0 35903165#1 35903165#2 30098199#2 30098199#3 35903288#0"/>
   </vehicle>
   <vehicle id="Rand149" depart="0">
      <route edges="34474997#1 34474997#2 34474997#3 30098185#0 30098185#1 30098185#2 30098184#4"/>
   </vehicle>
   <vehicle id="Rand15" depart="0">
      <route edges="-30098185#2 30098185#2 -30098184#3 -30098184#2 -30098184#1 -30098184#0 35900343#3 35900343#4 35901640#5 35901833#0 -43512942#2 -43512942#1+61326131#5 -43512942#0+61326131#6 -61326131#6+43512942#0"/>
   </vehicle>
   <vehicle id="Rand150" depart="0">
      <route edges="35901883#3 35773427#5 35773427#6 35773427#7 35900343#2 35900343#3 35900343#4 35901640#5 35901640#6 35901640#0"/>
   </vehicle>
   <vehicle id="Rand151" depart="0">
      <route edges="35902033#1 35902125#3 30098185#2 -30098184#3 35901883#2"/>
   </vehicle>
   <vehicle id="Rand152" depart="0">
      <route edges="-30098198 30098198 30098199#1 30098199#2 30098199#3"/>
   </vehicle>
   <vehicle id="Rand153" depart="0">
      <route edges="35901883#1 -30098184#2 35901888#2 27617819#3 35902561"/>
   </vehicle>
   <vehicle id="Rand155" depart="0">
      <route edges="35902564#2 34474997#1 35901888#0 35901888#1 35901888#2 35901888#3 35901912#0 -35901912#0"/>
   </vehicle>
   <vehicle id="Rand156" depart="0">
      <route edges="-27617850#1 35773427#1 -35773427#1"/>
   </vehicle>
   <vehicle id="Rand157" depart="0">
      <route edges="35773427#1 35773427#2 35773427#3 35773427#4 35773427#5 35773427#6 35773427#7 35900343#2 35900343#3 35903165#0 35903165#1 35903165#2 30098199#2 30098199#3 30098199#4 30098199#5 30098199#6 35900343#0 34474997#0"/>
   </vehicle>
   <vehicle id="Rand158" depart="0">
      <route edges="35902785#0 35902651#0+35902785#1 35902651#1 27617819#0 27617819#1 27617819#2 27617819#3 27617819#4 35900343#4 35901640#5 35901640#6"/>
   </vehicle>
   <vehicle id="Rand159" depart="0">
      <route edges="35902033#2 35902033#3"/>
   </vehicle>
   <vehicle id="Rand160" depart="0">
      <route edges="35903198#0 -35903198#0 30098199#3 30098199#4 30098199#5 30098199#6 35900343#0 34474997#0 34474997#1 34474997#2 34474997#3 34474997#4 34474997#5 -27617865#2 -27617865#1 -27617865#0 27617850#3 27617850#4 27617860"/>
   </vehicle>
   <vehicle id="Rand161" depart="0">
      <route edges="-27617850#2 27617850#2 27617865#0 27617865#1 35773427#2 35773427#3 35773427#4 35773427#5 35773427#6"/>
   </vehicle>
   <vehicle id="Rand162" depart="0">
      <route edges="35782161#1 35901912#0 35901883#0 35901883#1 35901883#2 35901883#3 35773427#5"/>
   </vehicle>
   <vehicle id="Rand163" depart="0">
      <route edges="35901912#0 35901912#1 23162032#3 23162032#4 23162032#5 35902125#0 27617850#2 27617865#0 35902125#2"/>
   </vehicle>
   <vehicle id="Rand164" depart="0">
      <route edges="35902125#1 27617865#1 35773427#2 35773427#3 30098185#1"/>
   </vehicle>
   <vehicle id="Rand165" depart="0">
      <route edges="-35773427#7 35902564#2 34474997#1 34474997#2 34474997#3 30098185#0 30098185#1 30098185#2 -30098185#2"/>
   </vehicle>
   <vehicle id="Rand166" depart="0">
      <route edges="35773427#2 -35773427#2 -27617865#1 -27617865#0 -27617850#2 -27617850#1"/>
   </vehicle>
   <vehicle id="Rand167" depart="0">
      <route edges="35901888#3 35901912#0 35901883#0 27617819#2 27617819#3 27617819#4 35900343#4 35901640#5 35901833#0"/>
   </vehicle>
   <vehicle id="Rand168" depart="0">
      <route edges="35903288#1 27131168#3 27131168#4 35903338#0 35903338#1 30098199#5 30098199#6 35900343#0 35900343#1 35900343#2 30098184#0 30098184#1 30098184#2"/>
   </vehicle>
   <vehicle id="Rand169" depart="0">
      <route edges="35901640#4 35901640#5 35901640#6 35901640#0 35901640#1 30098199#0 30098199#1 30098199#2"/>
   </vehicle>
   <vehicle id="Rand17" depart="0">
      <route edges="-27617819#2 35901883#1 30098184#3"/>
   </vehicle>
   <vehicle id="Rand170" depart="0">
      <route edges="61326131#3 -61326131#3 -61326131#2+23162032#0 -61326131#1+23162032#1 23162032#2 -35901912#1 35901883#0 27617819#2 27617819#3 27617819#4 35903165#0 35903165#1 35903165#2 30098199#2"/>
   </vehicle>
   <vehicle id="Rand171" depart="0">
      <route edges="61279142#0 61278965 -35903198#1 -35903198#0 30098199#3 30098199#4"/>
   </vehicle>
   <vehicle id="Rand172" depart="0">
      <route edges="35903165#1 35903165#2 30098199#2 30098199#3 30098199#4 30098199#5 30098199#6 35900343#0 35900343#1 35900343#2 35900343#3 35900343#4 35901640#5 35901640#6 35901640#0 35901640#1 30098199#0 -30098198"/>
   </vehicle>
   <vehicle id="Rand173" depart="0">
      <route edges="35901640#6 35901640#0 35901640#1 30098199#0 30098199#1 35903166#0 35903166#1 27131168#0 27131168#1 27131168#2 27131168#3 61279128#0"/>
   </vehicle>
   <vehicle id="Rand175" depart="0">
      <route edges="35901640#4 35901640#5 35901640#6 35901640#0 35901640#1 30098199#0 30098199#1 30098199#2 30098199#3 30098199#4 30098199#5 30098199#6 35900343#0 34474997#0 34474997#1 34474997#2 34474997#3 34474997#4 34474997#5 -27617865#2 -35773427#1 -35773427#0"/>
   </vehicle>
   <vehicle id="Rand176" depart="0">
      <route edges="61424033#0 27617828#0 27617828#1 27617828#2 27131168#0 27131168#1 -61278965 61278965"/>
   </vehicle>
   <vehicle id="Rand177" depart="0">
      <route edges="27131168#2 27131168#3 27131168#4 35903338#0 35903338#1 30098199#5 30098199#6 35900343#0 35900343#1"/>
   </vehicle>
   <vehicle id="Rand178" depart="0">
      <route edges="-35901912#1 35901883#0 27617819#2 27617819#3 27617819#4 35903165#0 35903165#1 35903165#2 30098199#2"/>
   </vehicle>
   <vehicle id="Rand179" depart="0">
      <route edges="35903166#0 35903166#1 27131168#0 27131168#1 27131168#2 27131168#3 27131168#4 35903338#0 35903338#1 30098199#5 30098199#6 35900343#0 35900343#1 35900343#2 30098184#0 30098184#1 30098184#2 30098184#3"/>
   </vehicle>
   <vehicle id="Rand181" depart="0">
      <route edges="35773427#7 -35773427#7 35902564#2 34474997#1 34474997#2 34474997#3 34474997#4 34474997#5 -27617865#2 -27617865#1 35902125#2"/>
   </vehicle>
   <vehicle id="Rand183" depart="0">
      <route edges="30098184#3 30098184#4 30098184#5 -27617850#3 -27617850#2"/>
   </vehicle>
   <vehicle id="Rand184" depart="0">
      <route edges="-35773427#4 35773427#4 35773427#5 35773427#6 35773427#7 35900343#2 35900343#3 35903165#0 35903165#1"/>
   </vehicle>
   <vehicle id="Rand185" depart="0">
      <route edges="-35903338#0 35903338#0 35903338#1 30098199#5 30098199#6 35900343#0 35900343#1 35900343#2 35900343#3 35900343#4 35901640#5 35901640#6 35901640#0 35901640#1 -61424033#1 -61424033#0"/>
   </vehicle>
   <vehicle id="Rand186" depart="0">
      <route edges="43512942#2 -43512942#2 -43512942#1+61326131#5 -43512942#0+61326131#6 61326131#0 23162032#2 23162032#3 23162032#4 23162032#5 35902125#0 35902125#1"/>
   </vehicle>
   <vehicle id="Rand187" depart="0">
      <route edges="30098184#0 -30098184#0 35900343#3 35900343#4 35901640#5 35901833#0 -43512942#2 -43512942#1+61326131#5 -43512942#0+61326131#6 35782161#1"/>
   </vehicle>
   <vehicle id="Rand188" depart="0">
      <route edges="30098199#6 35900343#0 35900343#1 35900343#2 35900343#3 -27617819#4 35902561"/>
   </vehicle>
   <vehicle id="Rand189" depart="0">
      <route edges="-35903198#0 35903198#0 61335135#3 35903166#1 27131168#0 -61334631"/>
   </vehicle>
   <vehicle id="Rand190" depart="0">
      <route edges="35782161#1 35901912#0 35901912#1 23162032#3 23162032#4 23162032#5 23162032#6 35773427#0 27617850#1"/>
   </vehicle>
   <vehicle id="Rand191" depart="0">
      <route edges="-35773427#6 -35773427#5 35901883#4 34474997#3 34474997#4 34474997#5 -27617865#2 -35773427#1"/>
   </vehicle>
   <vehicle id="Rand192" depart="0">
      <route edges="30098184#0 -30098184#0 35900343#3 35903165#0 35903165#1 35903165#2 35903166#0 35903166#1 27131168#0 27131168#1 27131168#2 27131168#3 61279128#0 61279128#1 -61279128#1"/>
   </vehicle>
   <vehicle id="Rand194" depart="0">
      <route edges="-30098185#2 30098185#2 -30098184#3 -30098184#2 35901888#2"/>
   </vehicle>
   <vehicle id="Rand195" depart="0">
      <route edges="-35773427#3 35773427#3 35773427#4 35773427#5 35773427#6 35773427#7 35900343#2 35900343#3 35903165#0 35903165#1 35903165#2 35903166#0 35903166#1 -43512899"/>
   </vehicle>
   <vehicle id="Rand196" depart="0">
      <route edges="-30098184#3 -30098184#2 -30098184#1 30098184#1"/>
   </vehicle>
   <vehicle id="Rand197" depart="0">
      <route edges="27617865#2 -27617865#2 -27617865#1 -27617865#0 27617850#3 27617850#4 27617860 27617819#0"/>
   </vehicle>
   <vehicle id="Rand199" depart="0">
      <route edges="27131168#0 27131168#1 27131168#2 27131168#3 27131168#4 35903338#0 35903338#1 30098199#5 30098199#6 35900343#0 34474997#0 34474997#1 34474997#2 34474997#3 34474997#4 34474997#5 -27617865#2 -27617865#1 -27617865#0 -27617850#2"/>
   </vehicle>
   <vehicle id="Rand2" depart="0">
      <route edges="35773427#7 35900343#2 35900343#3 35903165#0 35903165#1 35903165#2 30098199#2 30098199#3 30098199#4 30098199#5 30098199#6 35900343#0 34474997#0"/>
   </vehicle>
   <vehicle id="Rand20" depart="0">
      <route edges="-27617819#1 27617819#1 27617819#2 27617819#3 27617819#4 35903165#0 35903165#1 35903165#2 35903166#0 35903166#1 27131168#0 27131168#1 27131168#2 27131168#3 61279128#0"/>
   </vehicle>
   <vehicle id="Rand200" depart="0">
      <route edges="27617828#0 27617828#1 27617828#2 27131168#0 27131168#1 27131168#2 27131168#3 27131168#4 35903338#0 35903338#1 30098199#5 30098199#6 35900343#0 34474997#0 34474997#1 34474997#2 34474997#3 34474997#4 34474997#5 -27617865#2 -27617865#1 -27617865#0 27617850#3 30098184#6 -30098184#6"/>
   </vehicle>
   <vehicle id="Rand201" depart="0">
      <route edges="35902651#1 27617819#0 -30098185#3 -30098184#3 35901883#2 35901883#3 35901883#4"/>
   </vehicle>
   <vehicle id="Rand202" depart="0">
      <route edges="-43512899 43512899 27131168#0 27131168#1 27131168#2 27131168#3 27131168#4 35903338#0 35903338#1 30098199#5 30098199#6 35900343#0 35900343#1 35900343#2 35900343#3 35900343#4 35901640#5 35901833#0 35901833#1 61326131#4"/>
   </vehicle>
   <vehicle id="Rand203" depart="0">
      <route edges="61291538 27617828#1 27617828#2 27131168#0 27131168#1 27131168#2 27131168#3 27131168#4 35903338#0 35903338#1 30098199#5 30098199#6 35900343#0 35900343#1 35900343#2 30098184#0 30098184#1 35901888#2"/>
   </vehicle>
   <vehicle id="Rand204" depart="0">
      <route edges="-30098184#0 35900343#3 -27617819#4 -27617819#3 -27617819#2"/>
   </vehicle>
   <vehicle id="Rand205" depart="0">
      <route edges="-30098184#5 -30098184#4 -30098184#3 -30098184#2 -30098184#1 -30098184#0 35900343#3 35903165#0 35903165#1 35903165#2 30098199#2 30098199#3 30098199#4 -35903338#1 61335135#1"/>
   </vehicle>
   <vehicle id="Rand206" depart="0">
      <route edges="-30098184#0 35900343#3 35903165#0 35903165#1 35903165#2 35903166#0 35903166#1 -43512899 43512899"/>
   </vehicle>
   <vehicle id="Rand207" depart="0">
      <route edges="35773427#7 35900343#2 35900343#3 35900343#4 35901640#5 35901640#6 35901640#0 35901640#1 -61424033#1 27617828#0 -61291538"/>
   </vehicle>
   <vehicle id="Rand208" depart="0">
      <route edges="-35903198#0 30098199#3 30098199#4 30098199#5 30098199#6 35900343#0 35900343#1 35900343#2 30098184#0 30098184#1 30098184#2 35901883#2"/>
   </vehicle>
   <vehicle id="Rand209" depart="0">
      <route edges="35900338#0 35900338#1 35903165#1 35903165#2 30098199#2"/>
   </vehicle>
   <vehicle id="Rand21" depart="0">
      <route edges="35902651#1 23162032#4 -30098184#6 -27617850#3"/>
   </vehicle>
   <vehicle id="Rand212" depart="0">
      <route edges="61326131#3 -61326131#3 -61326131#2+23162032#0 -61326131#1+23162032#1 23162032#2 -35901912#1 35901883#0 27617819#2 27617819#3 27617819#4 35903165#0 35903165#1"/>
   </vehicle>
   <vehicle id="Rand213" depart="0">
      <route edges="61326131#1 -61326131#1+23162032#1 23162032#2 23162032#3 23162032#4 -30098184#6 -30098184#5 35902033#1 35902033#2 35902033#3"/>
   </vehicle>
   <vehicle id="Rand214" depart="0">
      <route edges="35903338#0 35903338#1 30098199#5 30098199#6 35900343#0 34474997#0 34474997#1 34474997#2 34474997#3 34474997#4 34474997#5 -27617865#2 -27617865#1 27617865#1"/>
   </vehicle>
   <vehicle id="Rand215" depart="0">
      <route edges="35902785#0 35902651#0+35902785#1 35902651#1 27617819#0 27617819#1 27617819#2 27617819#3 27617819#4 35900343#4 35901640#5 35901640#6 35901640#0 35901640#1 -61424033#1 -61424033#0 61424033#0"/>
   </vehicle>
   <vehicle id="Rand216" depart="0">
      <route edges="27617819#4 -27617819#4 -27617819#3 35901888#3 35901912#0 35901912#1 35901912#2 35902785#3"/>
   </vehicle>
   <vehicle id="Rand217" depart="0">
      <route edges="61279142#0 61278965 27131168#2 27131168#3 27131168#4 35903338#0 35903338#1 30098199#5 30098199#6 35900343#0 35900343#1 35900343#2 35900343#3 -27617819#4 -27617819#3 -27617819#2 -27617819#1 -27617819#0"/>
   </vehicle>
   <vehicle id="Rand218" depart="0">
      <route edges="30098184#1"/>
   </vehicle>
   <vehicle id="Rand219" depart="0">
      <route edges="30098184#0 30098184#1 30098184#2 30098184#3 -30098185#2 -30098185#1"/>
   </vehicle>
   <vehicle id="Rand22" depart="0">
      <route edges="35773427#1 -27617865#1 -27617865#0"/>
   </vehicle>
   <vehicle id="Rand220" depart="0">
      <route edges="35902033#1 35902125#3 30098185#2 -30098184#3 -30098184#2 -30098184#1 -30098184#0 35900343#3 35900343#4 35901640#5 35901640#6 35901640#0 35901640#1 30098199#0 -30098198"/>
   </vehicle>
   <vehicle id="Rand221" depart="0">
      <route edges="27617819#1 -27617819#1"/>
   </vehicle>
   <vehicle id="Rand222" depart="0">
      <route edges="61424033#1 30098199#0 30098199#1 35903166#0 35903166#1"/>
   </vehicle>
   <vehicle id="Rand223" depart="0">
      <route edges="61424033#1 35901640#2 35901640#3 35901640#4 35901640#5 35901640#6 35901640#0 35901640#1"/>
   </vehicle>
   <vehicle id="Rand224" depart="0">
      <route edges="30098184#1 30098184#2 35901883#2 35901883#3 35901883#4 34474997#3 34474997#4 34474997#5"/>
   </vehicle>
   <vehicle id="Rand225" depart="0">
      <route edges="-27617850#0 27617850#0 35773427#1 35773427#2 35773427#3 35773427#4 -35773427#4"/>
   </vehicle>
   <vehicle id="Rand226" depart="0">
      <route edges="35903338#1 30098199#5 30098199#6 35900343#0 35900343#1 35900343#2 35900343#3 35900343#4 35901640#5 35901640#6 35901640#0 35901640#1 30098199#0 -30098198 27617828#2"/>
   </vehicle>
   <vehicle id="Rand227" depart="0">
      <route edges="34474997#5 -27617865#2 35773427#2 35773427#3 35773427#4 35773427#5 35773427#6 35773427#7 35900343#2 35900343#3 35903165#0 35903165#1 35903165#2 35903166#0 35903166#1 27131168#0"/>
   </vehicle>
   <vehicle id="Rand228" depart="0">
      <route edges="-27617850#2 27617850#2 27617850#3 -27617850#3"/>
   </vehicle>
   <vehicle id="Rand229" depart="0">
      <route edges="35903165#0 35903165#1 35903165#2 35903166#0 35903166#1 27131168#0 27131168#1 -61278965 -61279142#0"/>
   </vehicle>
   <vehicle id="Rand230" depart="0">
      <route edges="-27617865#1 27617865#1 35773427#2 35773427#3 35773427#4 35773427#5 35901888#1"/>
   </vehicle>
   <vehicle id="Rand231" depart="0">
      <route edges="35900343#2 35900343#3 35903165#0 35903165#1 35903165#2 35903166#0 35903166#1 27131168#0 27131168#1 27131168#2 27131168#3 61279128#0 -61279128#0"/>
   </vehicle>
   <vehicle id="Rand232" depart="0">
      <route edges="30098184#2 30098184#3 30098184#4 30098184#5 27617850#4 35902033#0"/>
   </vehicle>
   <vehicle id="Rand233" depart="0">
      <route edges="30098184#5 27617850#4 27617860 27617819#0 27617819#1 27617819#2 -27617819#2"/>
   </vehicle>
   <vehicle id="Rand234" depart="0">
      <route edges="-43512899 43512899 27131168#0 27131168#1 -35903198#1 61335135#3"/>
   </vehicle>
   <vehicle id="Rand235" depart="0">
      <route edges="30098199#5 30098199#6 35900343#0 35900343#1 35900343#2 30098184#0 30098184#1 30098184#2"/>
   </vehicle>
   <vehicle id="Rand236" depart="0">
      <route edges="61335135#1 35903288#1 27131168#3 27131168#4 35903338#0 35903338#1 30098199#5 30098199#6 35900343#0 35900343#1 35900343#2 35900343#3 -27617819#4 -27617819#3 -27617819#2 27617819#2"/>
   </vehicle>
   <vehicle id="Rand237" depart="0">
      <route edges="30098199#6 35900343#0 34474997#0 34474997#1 34474997#2 34474997#3"/>
   </vehicle>
   <vehicle id="Rand238" depart="0">
      <route edges="-61326131#2+23162032#0 -61326131#1+23162032#1 23162032#2 -35901912#1 35901883#0 27617819#2 27617819#3 27617819#4 35903165#0 35903165#1 35903165#2 35903166#0 35903166#1 27131168#0 -61334631"/>
   </vehicle>
   <vehicle id="Rand239" depart="0">
      <route edges="61279128#0 -61279128#0 27131168#4 35903338#0 35903338#1 30098199#5 30098199#6 35900343#0 35900343#1 35900343#2 35900343#3 35900343#4 35901640#5 35901640#6 35901640#0 35901640#1 -61424033#1 27617828#0 -61291538 61291538"/>
   </vehicle>
   <vehicle id="Rand24" depart="0">
      <route edges="35902125#1 -27617865#0 27617850#3 -30098184#5 -30098184#4 -30098184#3 -30098184#2 -30098184#1 -30098184#0 35900343#3 35903165#0 35903165#1 35903165#2 30098199#2 30098199#3 35903288#0 61335135#2"/>
   </vehicle>
   <vehicle id="Rand240" depart="0">
      <route edges="-27617819#0 27617819#0 27617819#1 27617819#2 27617819#3 27617819#4 35903165#0 35903165#1 35903165#2 30098199#2 30098199#3 35903288#0"/>
   </vehicle>
   <vehicle id="Rand241" depart="0">
      <route edges="52491207 61335135#0 61335135#1 35903288#1 27131168#3 61279128#0 -61279142#1 -61279142#0 61279142#0"/>
   </vehicle>
   <vehicle id="Rand242" depart="0">
      <route edges="-30098184#3 30098184#3 30098184#4 35902033#1 35902125#3"/>
   </vehicle>
   <vehicle id="Rand243" depart="0">
      <route edges="35773427#1 35773427#2 35773427#3 35773427#4 35773427#5 35773427#6 35773427#7 35900343#2 35900343#3 35900343#4 35901640#5 35901833#0 -43512942#2 -43512942#1+61326131#5"/>
   </vehicle>
   <vehicle id="Rand244" depart="0">
      <route edges="27131168#2 27131168#3 27131168#4 35903338#0 35903338#1 30098199#5 30098199#6 35900343#0 34474997#0 34474997#1 34474997#2 34474997#3 34474997#4 34474997#5 -27617865#2 -27617865#1 -27617865#0 -27617850#2"/>
   </vehicle>
   <vehicle id="Rand246" depart="0">
      <route edges="27617819#1 27617819#2 27617819#3 27617819#4 35900343#4 35901640#5"/>
   </vehicle>
   <vehicle id="Rand247" depart="0">