<?xml version="1.0"?>

<!-- generated on Tue Jun  8 14:51:55 2010 by SUMO netconvert Version 0.11.1
<configuration>

    <input>
        <osm-files value="/home/tuser6/Mallba/rep/PSO/traffic-light/condor/tl2/malaga-alameda/alameda.osm.xml"/>
    </input>

    <output>
        <output-file value="/home/tuser6/Mallba/rep/PSO/traffic-light/condor/tl2/malaga-alameda/alameda.net.xml"/>
    </output>

    <projection>
        <proj.utm value="true"/>
    </projection>

    <tls_building>
        <explicite-tls value="303278164,419656062,419656049,303276132,419656076,331525911,419646198,419646059,419646058,549226071,419656030,418376981,419646084,419659496,419625737,419659665,303278502,418234858,331525908,419641406,766791450,419640946,419641100,419640940,419641424,419641199,331526231,303275904,303275910,419674915,419677113,419680393,419632850,419630409,303275664,419677116,303275666,303275667,419680391,765632521,419677118,577406877,766079758,303275184,419640944,419640934,549226082,331526235,419652689,419656038,419652679,303278277,419652684,419656024"/>
    </tls_building>

</configuration>
-->

<net>

   <location netOffset="-372671.09,-4063955.25" convBoundary="0.00,0.00,545.44,892.25" origBoundary="-4.425715,36.712769,-4.419645,36.720844" projParameter="+proj=utm +zone=30 +ellps=WGS84 +datum=WGS84 +units=m +no_defs"/>

   <edge id=":248606019_0" function="internal">
      <lanes>
         <lane id=":248606019_0_0" depart="0" maxspeed="18.06" length="25.06" shape="542.64,536.97 544.50,544.14 545.44,551.05 545.62,557.10 545.23,561.71"/>
      </lanes>
   </edge>

   <edge id=":248606019_1" function="internal">
      <lanes>
         <lane id=":248606019_1_0" depart="0" maxspeed="22.92" length="22.37" shape="539.52,538.02 541.52,545.85 540.92,549.64 537.71,549.38 531.90,545.07"/>
      </lanes>
   </edge>

   <edge id=":248606019_2" function="internal">
      <lanes>
         <lane id=":248606019_2_0" depart="0" maxspeed="22.92" length="15.40" shape="539.52,538.02 540.86,543.34 540.41,545.88 538.15,545.63 534.10,542.61"/>
      </lanes>
   </edge>

   <edge id=":248606019_3" function="internal">
      <lanes>
         <lane id=":248606019_3_0" depart="0" maxspeed="8.33" length="24.40" shape="536.29,540.14 540.95,545.14 543.99,550.40 545.41,555.92 545.23,561.71"/>
      </lanes>
   </edge>

   <edge id=":248606019_4" function="internal">
      <lanes>
         <lane id=":248606019_4_0" depart="0" maxspeed="13.19" length="4.82" shape="536.29,540.14 536.67,541.58 536.43,542.47 535.57,542.81 534.10,542.61"/>
      </lanes>
   </edge>

   <edge id=":248606019_5" function="internal">
      <lanes>
         <lane id=":248606019_5_0" depart="0" maxspeed="13.19" length="18.52" shape="541.97,561.16 541.35,559.43 539.10,556.58 535.22,552.62 529.71,547.53"/>
      </lanes>
   </edge>

   <edge id=":248606019_6" function="internal">
      <lanes>
         <lane id=":248606019_6_0" depart="0" maxspeed="8.33" length="4.82" shape="541.97,561.16 542.99,560.08 543.87,559.81 544.62,560.35 545.23,561.71"/>
      </lanes>
   </edge>

   <edge id=":248606020_0" function="internal">
      <lanes>
         <lane id=":248606020_0_0" depart="0" maxspeed="8.33" length="9.23" shape="538.32,602.80 537.10,611.95"/>
      </lanes>
   </edge>

   <edge id=":248606020_1" function="internal">
      <lanes>
         <lane id=":248606020_1_0" depart="0" maxspeed="8.33" length="4.82" shape="538.32,602.80 537.30,603.89 536.42,604.16 535.67,603.61 535.06,602.26"/>
      </lanes>
   </edge>

   <edge id=":248606020_2" function="internal">
      <lanes>
         <lane id=":248606020_2_0" depart="0" maxspeed="18.06" length="5.19" shape="531.31,604.51 532.74,604.77 533.85,604.48 534.62,603.64 535.06,602.26"/>
      </lanes>
   </edge>

   <edge id=":248606020_3" function="internal">
      <lanes>
         <lane id=":248606020_3_0" depart="0" maxspeed="18.06" length="8.39" shape="530.27,607.65 533.32,608.79 535.48,609.89 536.74,610.94 537.10,611.95"/>
      </lanes>
   </edge>

   <edge id=":248606020_4" function="internal">
      <lanes>
         <lane id=":248606020_4_0" depart="0" maxspeed="8.33" length="9.49" shape="533.81,611.66 535.06,602.26"/>
      </lanes>
   </edge>

   <edge id=":248606020_5" function="internal">
      <lanes>
         <lane id=":248606020_5_0" depart="0" maxspeed="8.33" length="4.82" shape="533.81,611.66 534.74,610.50 535.60,610.16 536.39,610.64 537.10,611.95"/>
      </lanes>
   </edge>

   <edge id=":250325366_0" function="internal">
      <lanes>
         <lane id=":250325366_0_0" depart="0" maxspeed="18.06" length="1.81" shape="512.92,532.58 511.67,531.28"/>
      </lanes>
   </edge>

   <edge id=":250325366_1" function="internal">
      <lanes>
         <lane id=":250325366_1_0" depart="0" maxspeed="18.06" length="1.29" shape="515.12,530.12 514.23,529.19"/>
      </lanes>
   </edge>

   <edge id=":250325366_2" function="internal">
      <lanes>
         <lane id=":250325366_2_0" depart="0" maxspeed="18.06" length="0.77" shape="517.31,527.65 516.78,527.10"/>
      </lanes>
   </edge>

   <edge id=":250325366_3" function="internal">
      <lanes>
         <lane id=":250325366_3_0" depart="0" maxspeed="13.19" length="4.82" shape="517.31,527.65 516.94,526.21 517.18,525.32 518.03,524.98 519.51,525.19"/>
      </lanes>
   </edge>

   <edge id=":250325366_4" function="internal">
      <lanes>
         <lane id=":250325366_4_0" depart="0" maxspeed="8.33" length="0.25" shape="519.33,525.01 519.51,525.19"/>
      </lanes>
   </edge>

   <edge id=":250325366_5" function="internal">
      <lanes>
         <lane id=":250325366_5_0" depart="0" maxspeed="13.19" length="4.82" shape="519.33,525.01 519.48,526.49 519.10,527.33 518.20,527.53 516.78,527.10"/>
      </lanes>
   </edge>

   <edge id=":303193812_0" function="internal">
      <lanes>
         <lane id=":303193812_0_0" depart="0" maxspeed="8.33" length="4.82" shape="364.11,892.38 363.20,893.55 362.34,893.90 361.55,893.42 360.82,892.12"/>
      </lanes>
   </edge>

   <edge id=":303275184_0" function="internal">
      <lanes>
         <lane id=":303275184_0_0" depart="0" maxspeed="11.11" length="7.70" shape="261.39,625.82 259.62,626.25 258.21,627.26 257.16,628.83 256.47,630.97"/>
      </lanes>
   </edge>

   <edge id=":303275184_1" function="internal">
      <lanes>
         <lane id=":303275184_1_0" depart="0" maxspeed="20.83" length="9.99" shape="261.39,625.82 251.73,623.28"/>
      </lanes>
   </edge>

   <edge id=":303275184_2" function="internal">
      <lanes>
         <lane id=":303275184_2_0" depart="0" maxspeed="18.06" length="9.05" shape="258.76,622.21 256.47,630.97"/>
      </lanes>
   </edge>

   <edge id=":303275184_3" function="internal">
      <lanes>
         <lane id=":303275184_3_0" depart="0" maxspeed="27.78" length="5.00" shape="255.61,621.23 255.02,622.47 254.18,623.22 253.09,623.49 251.73,623.28"/>
      </lanes>
   </edge>

   <edge id=":303275184_4" function="internal">
      <lanes>
         <lane id=":303275184_4_0" depart="0" maxspeed="18.06" length="5.12" shape="253.24,630.28 253.31,628.96 252.93,627.87 252.08,627.03 250.77,626.44"/>
      </lanes>
   </edge>

   <edge id=":303275184_5" function="internal">
      <lanes>
         <lane id=":303275184_5_0" depart="0" maxspeed="8.33" length="0.10" shape="253.24,630.28 254.23,629.32"/>
      </lanes>
   </edge>

   <edge id=":303275184_6" function="internal">
      <lanes>
         <lane id=":303275184_6_0" depart="0" maxspeed="8.33" length="4.72" shape="254.23,629.32 254.30,629.25 255.20,629.01 255.92,629.59 256.47,630.97"/>
      </lanes>
   </edge>

   <edge id=":303275185_0" function="internal">
      <lanes>
         <lane id=":303275185_0_0" depart="0" maxspeed="8.33" length="5.49" shape="382.05,614.75 381.38,620.20"/>
      </lanes>
   </edge>

   <edge id=":303275185_1" function="internal">
      <lanes>
         <lane id=":303275185_1_0" depart="0" maxspeed="11.11" length="7.65" shape="382.05,614.75 381.47,615.49 380.10,616.09 377.93,616.57 374.96,616.91"/>
      </lanes>
   </edge>

   <edge id=":303275185_2" function="internal">
      <lanes>
         <lane id=":303275185_2_0" depart="0" maxspeed="8.33" length="4.82" shape="382.05,614.75 380.98,615.78 380.08,616.00 379.37,615.42 378.83,614.03"/>
      </lanes>
   </edge>

   <edge id=":303275185_3" function="internal">
      <lanes>
         <lane id=":303275185_3_0" depart="0" maxspeed="11.11" length="5.18" shape="378.09,619.98 377.97,618.54 377.42,617.54 376.41,617.00 374.96,616.91"/>
      </lanes>
   </edge>

   <edge id=":303275185_4" function="internal">
      <lanes>
         <lane id=":303275185_4_0" depart="0" maxspeed="8.33" length="6.00" shape="378.09,619.98 378.83,614.03"/>
      </lanes>
   </edge>

   <edge id=":303275185_5" function="internal">
      <lanes>
         <lane id=":303275185_5_0" depart="0" maxspeed="8.33" length="4.82" shape="378.09,619.98 378.99,618.80 379.84,618.44 380.64,618.91 381.38,620.20"/>
      </lanes>
   </edge>

   <edge id=":303275664_0" function="internal">
      <lanes>
         <lane id=":303275664_0_0" depart="0" maxspeed="20.83" length="6.12" shape="84.67,523.76 84.41,525.56 84.67,527.01 85.45,528.10 86.74,528.85"/>
      </lanes>
   </edge>

   <edge id=":303275664_1" function="internal">
      <lanes>
         <lane id=":303275664_1_0" depart="0" maxspeed="27.78" length="7.38" shape="84.67,523.76 82.87,530.92"/>
      </lanes>
   </edge>

   <edge id=":303275664_2" function="internal">
      <lanes>
         <lane id=":303275664_2_0" depart="0" maxspeed="27.78" length="7.44" shape="81.48,522.93 79.67,530.14"/>
      </lanes>
   </edge>

   <edge id=":303275664_3" function="internal">
      <lanes>
         <lane id=":303275664_3_0" depart="0" maxspeed="27.78" length="0.10" shape="81.48,522.93 80.44,523.85"/>
      </lanes>
   </edge>

   <edge id=":303275664_11" function="internal">
      <lanes>
         <lane id=":303275664_11_0" depart="0" maxspeed="27.78" length="4.72" shape="80.44,523.85 80.37,523.91 79.47,524.10 78.77,523.50 78.29,522.09"/>
      </lanes>
   </edge>

   <edge id=":303275664_4" function="internal">
      <lanes>
         <lane id=":303275664_4_0" depart="0" maxspeed="20.83" length="5.09" shape="71.23,523.32 72.61,523.58 73.72,523.33 74.55,522.55 75.10,521.25"/>
      </lanes>
   </edge>

   <edge id=":303275664_5" function="internal">
      <lanes>
         <lane id=":303275664_5_0" depart="0" maxspeed="13.89" length="16.47" shape="71.23,523.32 74.98,524.63 78.99,526.05 83.00,527.49 86.74,528.85"/>
      </lanes>
   </edge>

   <edge id=":303275664_6" function="internal">
      <lanes>
         <lane id=":303275664_6_0" depart="0" maxspeed="20.83" length="3.28" shape="71.23,523.32 72.21,523.71"/>
      </lanes>
   </edge>

   <edge id=":303275664_12" function="internal">
      <lanes>
         <lane id=":303275664_12_0" depart="0" maxspeed="20.83" length="8.34" shape="72.21,523.71 75.25,524.95 77.99,526.64 79.46,528.37 79.67,530.14"/>
      </lanes>
   </edge>

   <edge id=":303275664_7" function="internal">
      <lanes>
         <lane id=":303275664_7_0" depart="0" maxspeed="27.78" length="7.57" shape="73.25,528.59 75.10,521.25"/>
      </lanes>
   </edge>

   <edge id=":303275664_8" function="internal">
      <lanes>
         <lane id=":303275664_8_0" depart="0" maxspeed="27.78" length="7.51" shape="76.46,529.37 78.29,522.09"/>
      </lanes>
   </edge>

   <edge id=":303275664_9" function="internal">
      <lanes>
         <lane id=":303275664_9_0" depart="0" maxspeed="20.83" length="4.81" shape="76.46,529.37 77.46,527.86 81.74,527.51"/>
      </lanes>
   </edge>

   <edge id=":303275664_13" function="internal">
      <lanes>
         <lane id=":303275664_13_0" depart="0" maxspeed="20.83" length="6.57" shape="81.74,527.51 82.60,527.60 86.74,528.85"/>
      </lanes>
   </edge>

   <edge id=":303275664_10" function="internal">
      <lanes>
         <lane id=":303275664_10_0" depart="0" maxspeed="27.78" length="0.10" shape="76.46,529.37 77.48,528.43"/>
      </lanes>
   </edge>

   <edge id=":303275664_14" function="internal">
      <lanes>
         <lane id=":303275664_14_0" depart="0" maxspeed="27.78" length="4.72" shape="77.48,528.43 77.55,528.36 78.45,528.15 79.15,528.75 79.67,530.14"/>
      </lanes>
   </edge>

   <edge id=":303275666_0" function="internal">
      <lanes>
         <lane id=":303275666_0_0" depart="0" maxspeed="11.11" length="5.19" shape="219.51,574.09 219.01,575.46 219.11,576.60 219.80,577.50 221.09,578.18"/>
      </lanes>
   </edge>

   <edge id=":303275666_1" function="internal">
      <lanes>
         <lane id=":303275666_1_0" depart="0" maxspeed="8.33" length="7.19" shape="219.51,574.09 216.13,580.43"/>
      </lanes>
   </edge>

   <edge id=":303275666_2" function="internal">
      <lanes>
         <lane id=":303275666_2_0" depart="0" maxspeed="8.33" length="0.10" shape="219.51,574.09 218.28,574.75"/>
      </lanes>
   </edge>

   <edge id=":303275666_9" function="internal">
      <lanes>
         <lane id=":303275666_9_0" depart="0" maxspeed="8.33" length="4.72" shape="218.28,574.75 218.20,574.79 217.27,574.77 216.74,574.01 216.60,572.53"/>
      </lanes>
   </edge>

   <edge id=":303275666_3" function="internal">
      <lanes>
         <lane id=":303275666_3_0" depart="0" maxspeed="11.11" length="6.04" shape="211.63,574.80 213.12,575.08 214.45,574.80 215.61,573.95 216.60,572.53"/>
      </lanes>
   </edge>

   <edge id=":303275666_4" function="internal">
      <lanes>
         <lane id=":303275666_4_0" depart="0" maxspeed="13.89" length="10.04" shape="211.63,574.80 214.43,575.81 216.36,576.50 218.28,577.19 221.09,578.18"/>
      </lanes>
   </edge>

   <edge id=":303275666_5" function="internal">
      <lanes>
         <lane id=":303275666_5_0" depart="0" maxspeed="11.11" length="8.27" shape="211.63,574.80 214.27,576.00 215.90,577.34 216.51,578.82 216.13,580.43"/>
      </lanes>
   </edge>

   <edge id=":303275666_6" function="internal">
      <lanes>
         <lane id=":303275666_6_0" depart="0" maxspeed="8.33" length="7.20" shape="213.21,578.89 216.60,572.53"/>
      </lanes>
   </edge>

   <edge id=":303275666_7" function="internal">
      <lanes>
         <lane id=":303275666_7_0" depart="0" maxspeed="11.11" length="3.17" shape="213.21,578.89 214.43,577.70"/>
      </lanes>
   </edge>

   <edge id=":303275666_10" function="internal">
      <lanes>
         <lane id=":303275666_10_0" depart="0" maxspeed="11.11" length="5.39" shape="214.43,577.70 215.96,577.24 218.23,577.39 221.09,578.18"/>
      </lanes>
   </edge>

   <edge id=":303275666_8" function="internal">
      <lanes>
         <lane id=":303275666_8_0" depart="0" maxspeed="8.33" length="0.10" shape="213.21,578.89 214.43,578.23"/>
      </lanes>
   </edge>

   <edge id=":303275666_11" function="internal">
      <lanes>
         <lane id=":303275666_11_0" depart="0" maxspeed="8.33" length="4.72" shape="214.43,578.23 214.52,578.18 215.44,578.20 215.98,578.95 216.13,580.43"/>
      </lanes>
   </edge>

   <edge id=":303275667_0" function="internal">
      <lanes>
         <lane id=":303275667_0_0" depart="0" maxspeed="27.78" length="6.32" shape="268.27,591.27 266.48,597.33"/>
      </lanes>
   </edge>

   <edge id=":303275667_1" function="internal">
      <lanes>
         <lane id=":303275667_1_0" depart="0" maxspeed="27.78" length="6.24" shape="265.10,590.37 263.32,596.35"/>
      </lanes>
   </edge>

   <edge id=":303275667_2" function="internal">
      <lanes>
         <lane id=":303275667_2_0" depart="0" maxspeed="20.83" length="5.09" shape="261.20,592.38 262.47,593.03 263.24,593.91 263.53,595.01 263.32,596.35"/>
      </lanes>
   </edge>

   <edge id=":303275904_0" function="internal">
      <lanes>
         <lane id=":303275904_0_0" depart="0" maxspeed="27.78" length="7.38" shape="292.14,549.25 290.61,549.04 289.06,549.46 287.48,550.51 285.87,552.20"/>
      </lanes>
   </edge>

   <edge id=":303275904_1" function="internal">
      <lanes>
         <lane id=":303275904_1_0" depart="0" maxspeed="27.78" length="11.36" shape="293.23,546.14 290.00,545.56 287.66,545.98 285.30,546.44 282.03,545.99"/>
      </lanes>
   </edge>

   <edge id=":303275904_2" function="internal">
      <lanes>
         <lane id=":303275904_2_0" depart="0" maxspeed="27.78" length="11.93" shape="291.24,541.68 289.99,544.76 288.18,546.34 285.91,547.70 283.30,550.13"/>
      </lanes>
   </edge>

   <edge id=":303275904_3" function="internal">
      <lanes>
         <lane id=":303275904_3_0" depart="0" maxspeed="27.78" length="6.16" shape="288.01,540.98 287.44,542.29 286.41,543.03 284.93,543.21 282.99,542.83"/>
      </lanes>
   </edge>

   <edge id=":303275910_0" function="internal">
      <lanes>
         <lane id=":303275910_0_0" depart="0" maxspeed="27.78" length="5.92" shape="294.18,529.25 294.02,530.75 294.40,532.02 295.34,533.04 296.84,533.84"/>
      </lanes>
   </edge>

   <edge id=":303275910_1" function="internal">
      <lanes>
         <lane id=":303275910_1_0" depart="0" maxspeed="27.78" length="10.83" shape="291.00,528.38 290.69,531.48 291.30,533.67 291.96,535.87 291.81,539.01"/>
      </lanes>
   </edge>

   <edge id=":303275910_2" function="internal">
      <lanes>
         <lane id=":303275910_2_0" depart="0" maxspeed="27.78" length="10.83" shape="287.15,530.49 289.93,531.89 291.45,533.58 292.95,535.34 295.66,536.92"/>
      </lanes>
   </edge>

   <edge id=":303275910_3" function="internal">
      <lanes>
         <lane id=":303275910_3_0" depart="0" maxspeed="27.78" length="5.88" shape="286.18,533.65 287.53,534.31 288.38,535.31 288.73,536.64 288.59,538.32"/>
      </lanes>
   </edge>

   <edge id=":303276132_0" function="internal">
      <lanes>
         <lane id=":303276132_0_0" depart="0" maxspeed="20.83" length="5.80" shape="358.13,336.70 356.85,335.53 355.72,335.26 354.74,335.89 353.92,337.41"/>
      </lanes>
   </edge>

   <edge id=":303276132_1" function="internal">
      <lanes>
         <lane id=":303276132_1_0" depart="0" maxspeed="27.78" length="17.50" shape="358.13,336.70 354.79,332.72 352.51,329.99 350.22,327.27 346.89,323.29"/>
      </lanes>
   </edge>

   <edge id=":303276132_2" function="internal">
      <lanes>
         <lane id=":303276132_2_0" depart="0" maxspeed="27.78" length="17.50" shape="360.66,334.58 357.32,330.60 355.04,327.87 352.75,325.15 349.42,321.17"/>
      </lanes>
   </edge>

   <edge id=":303276132_3" function="internal">
      <lanes>
         <lane id=":303276132_3_0" depart="0" maxspeed="20.83" length="12.36" shape="359.51,326.45 357.41,329.64 356.07,332.08 355.05,334.44 353.92,337.41"/>
      </lanes>
   </edge>

   <edge id=":303276132_4" function="internal">
      <lanes>
         <lane id=":303276132_4_0" depart="0" maxspeed="27.78" length="9.26" shape="356.80,324.57 355.57,325.47 353.93,325.20 351.88,323.77 349.42,321.17"/>
      </lanes>
   </edge>

   <edge id=":303276132_5" function="internal">
      <lanes>
         <lane id=":303276132_5_0" depart="0" maxspeed="20.83" length="8.47" shape="344.66,326.44 347.45,327.23 348.76,326.97 348.57,325.66 346.89,323.29"/>
      </lanes>
   </edge>

   <edge id=":303276132_6" function="internal">
      <lanes>
         <lane id=":303276132_6_0" depart="0" maxspeed="13.89" length="16.03" shape="344.66,326.44 349.65,328.77 352.85,331.38 354.28,334.26 353.92,337.41"/>
      </lanes>
   </edge>

   <edge id=":303276132_7" function="internal">
      <lanes>
         <lane id=":303276132_7_0" depart="0" maxspeed="20.83" length="14.18" shape="350.83,336.24 351.39,333.30 350.92,330.17 349.42,326.83 346.89,323.29"/>
      </lanes>
   </edge>

   <edge id=":303276132_8" function="internal">
      <lanes>
         <lane id=":303276132_8_0" depart="0" maxspeed="13.89" length="0.10" shape="350.83,336.24 351.96,335.43"/>
      </lanes>
   </edge>

   <edge id=":303276132_9" function="internal">
      <lanes>
         <lane id=":303276132_9_0" depart="0" maxspeed="13.89" length="4.72" shape="351.96,335.43 352.04,335.37 352.96,335.28 353.58,335.96 353.92,337.41"/>
      </lanes>
   </edge>

   <edge id=":303277850_0" function="internal">
      <lanes>
         <lane id=":303277850_0_0" depart="0" maxspeed="13.89" length="4.82" shape="149.44,136.08 149.25,134.60 149.61,133.75 150.50,133.52 151.94,133.92"/>
      </lanes>
   </edge>

   <edge id=":303277852_0" function="internal">
      <lanes>
         <lane id=":303277852_0_0" depart="0" maxspeed="13.89" length="14.79" shape="301.37,303.76 303.71,306.72 306.00,309.70 308.55,312.30 311.67,314.13"/>
      </lanes>
   </edge>

   <edge id=":303277852_1" function="internal">
      <lanes>
         <lane id=":303277852_1_0" depart="0" maxspeed="13.89" length="14.76" shape="301.37,303.76 304.18,307.63 304.35,309.83 301.88,310.35 296.77,309.20"/>
      </lanes>
   </edge>

   <edge id=":303277852_2" function="internal">
      <lanes>
         <lane id=":303277852_2_0" depart="0" maxspeed="13.89" length="4.82" shape="301.37,303.76 301.57,305.23 301.22,306.09 300.33,306.32 298.89,305.93"/>
      </lanes>
   </edge>

   <edge id=":303278079_0" function="internal">
      <lanes>
         <lane id=":303278079_0_0" depart="0" maxspeed="20.83" length="5.03" shape="104.35,251.17 103.09,250.58 102.32,249.73 102.03,248.64 102.22,247.29"/>
      </lanes>
   </edge>

   <edge id=":303278079_1" function="internal">
      <lanes>
         <lane id=":303278079_1_0" depart="0" maxspeed="27.78" length="6.21" shape="97.32,252.33 99.05,246.37"/>
      </lanes>
   </edge>

   <edge id=":303278079_2" function="internal">
      <lanes>
         <lane id=":303278079_2_0" depart="0" maxspeed="27.78" length="6.20" shape="100.49,253.25 102.22,247.29"/>
      </lanes>
   </edge>

   <edge id=":303278164_0" function="internal">
      <lanes>
         <lane id=":303278164_0_0" depart="0" maxspeed="13.89" length="14.03" shape="240.17,239.66 237.42,237.52 234.26,236.35 230.83,235.62 227.25,234.79"/>
      </lanes>
   </edge>

   <edge id=":303278164_1" function="internal">
      <lanes>
         <lane id=":303278164_1_0" depart="0" maxspeed="13.89" length="15.03" shape="240.17,239.66 237.68,236.85 235.21,234.01 232.75,231.17 230.30,228.33"/>
      </lanes>
   </edge>

   <edge id=":303278164_2" function="internal">
      <lanes>
         <lane id=":303278164_2_0" depart="0" maxspeed="13.89" length="0.10" shape="240.17,239.66 239.97,238.28"/>
      </lanes>
   </edge>

   <edge id=":303278164_9" function="internal">
      <lanes>
         <lane id=":303278164_9_0" depart="0" maxspeed="13.89" length="4.72" shape="239.97,238.28 239.96,238.19 240.30,237.33 241.19,237.09 242.63,237.46"/>
      </lanes>
   </edge>

   <edge id=":303278164_3" function="internal">
      <lanes>
         <lane id=":303278164_3_0" depart="0" maxspeed="13.89" length="14.97" shape="232.79,226.17 235.24,229.00 237.69,231.83 240.15,234.65 242.63,237.46"/>
      </lanes>
   </edge>

   <edge id=":303278164_4" function="internal">
      <lanes>
         <lane id=":303278164_4_0" depart="0" maxspeed="13.89" length="11.32" shape="232.79,226.17 236.92,231.86 235.03,235.90"/>
      </lanes>
   </edge>

   <edge id=":303278164_10" function="internal">
      <lanes>
         <lane id=":303278164_10_0" depart="0" maxspeed="13.89" length="9.47" shape="235.03,235.90 234.15,236.17 227.25,234.79"/>
      </lanes>
   </edge>

   <edge id=":303278164_5" function="internal">
      <lanes>
         <lane id=":303278164_5_0" depart="0" maxspeed="13.89" length="0.10" shape="232.79,226.17 232.97,227.54"/>
      </lanes>
   </edge>

   <edge id=":303278164_11" function="internal">
      <lanes>
         <lane id=":303278164_11_0" depart="0" maxspeed="13.89" length="4.72" shape="232.97,227.54 232.98,227.64 232.63,228.49 231.73,228.72 230.30,228.33"/>
      </lanes>
   </edge>

   <edge id=":303278164_6" function="internal">
      <lanes>
         <lane id=":303278164_6_0" depart="0" maxspeed="13.89" length="7.94" shape="228.18,231.62 230.82,232.15 232.05,231.78 231.87,230.50 230.30,228.33"/>
      </lanes>
   </edge>

   <edge id=":303278164_7" function="internal">
      <lanes>
         <lane id=":303278164_7_0" depart="0" maxspeed="13.89" length="15.78" shape="228.18,231.62 231.99,232.60 235.95,233.67 239.64,235.17 242.63,237.46"/>
      </lanes>
   </edge>

   <edge id=":303278164_8" function="internal">
      <lanes>
         <lane id=":303278164_8_0" depart="0" maxspeed="13.89" length="0.10" shape="228.18,231.62 229.07,232.68"/>
      </lanes>
   </edge>

   <edge id=":303278164_12" function="internal">
      <lanes>
         <lane id=":303278164_12_0" depart="0" maxspeed="13.89" length="4.72" shape="229.07,232.68 229.14,232.76 229.30,233.67 228.67,234.34 227.25,234.79"/>
      </lanes>
   </edge>

   <edge id=":303278277_0" function="internal">
      <lanes>
         <lane id=":303278277_0_0" depart="0" maxspeed="20.83" length="3.00" shape="118.69,202.41 117.52,201.65 116.92,198.21"/>
      </lanes>
   </edge>

   <edge id=":303278277_5" function="internal">
      <lanes>
         <lane id=":303278277_5_0" depart="0" maxspeed="20.83" length="4.82" shape="116.92,198.21 116.92,198.15 117.50,195.41"/>
      </lanes>
   </edge>

   <edge id=":303278277_1" function="internal">
      <lanes>
         <lane id=":303278277_1_0" depart="0" maxspeed="13.89" length="0.10" shape="118.69,202.41 117.80,201.35"/>
      </lanes>
   </edge>

   <edge id=":303278277_6" function="internal">
      <lanes>
         <lane id=":303278277_6_0" depart="0" maxspeed="13.89" length="4.72" shape="117.80,201.35 117.74,201.27 117.57,200.36 118.20,199.69 119.62,199.24"/>
      </lanes>
   </edge>

   <edge id=":303278277_2" function="internal">
      <lanes>
         <lane id=":303278277_2_0" depart="0" maxspeed="27.78" length="9.40" shape="111.67,203.52 114.33,194.51"/>
      </lanes>
   </edge>

   <edge id=":303278277_3" function="internal">
      <lanes>
         <lane id=":303278277_3_0" depart="0" maxspeed="27.78" length="9.47" shape="114.82,204.49 117.50,195.41"/>
      </lanes>
   </edge>

   <edge id=":303278277_4" function="internal">
      <lanes>
         <lane id=":303278277_4_0" depart="0" maxspeed="20.83" length="7.82" shape="114.82,204.49 115.82,201.87 116.96,200.13 118.22,199.25 119.62,199.24"/>
      </lanes>
   </edge>

   <edge id=":303278502_0" function="internal">
      <lanes>
         <lane id=":303278502_0_0" depart="0" maxspeed="27.78" length="9.88" shape="37.79,441.89 41.64,432.80"/>
      </lanes>
   </edge>

   <edge id=":303278502_1" function="internal">
      <lanes>
         <lane id=":303278502_1_0" depart="0" maxspeed="27.78" length="9.70" shape="40.86,443.09 44.65,434.15"/>
      </lanes>
   </edge>

   <edge id=":303278502_2" function="internal">
      <lanes>
         <lane id=":303278502_2_0" depart="0" maxspeed="27.78" length="8.32" shape="40.86,443.09 42.07,440.60 43.42,438.94 44.94,438.09 46.61,438.06"/>
      </lanes>
   </edge>

   <edge id=":303278502_3" function="internal">
      <lanes>
         <lane id=":303278502_3_0" depart="0" maxspeed="27.78" length="5.88" shape="40.86,443.09 41.57,441.97 42.64,441.30 44.09,441.07 45.91,441.29"/>
      </lanes>
   </edge>

   <edge id=":331525908_0" function="internal">
      <lanes>
         <lane id=":331525908_0_0" depart="0" maxspeed="20.83" length="5.13" shape="205.12,479.08 204.86,480.50 205.10,481.65 205.83,482.54 207.06,483.15"/>
      </lanes>
   </edge>

   <edge id=":331525908_1" function="internal">
      <lanes>
         <lane id=":331525908_1_0" depart="0" maxspeed="13.89" length="0.10" shape="205.12,479.08 204.03,479.94"/>
      </lanes>
   </edge>

   <edge id=":331525908_5" function="internal">
      <lanes>
         <lane id=":331525908_5_0" depart="0" maxspeed="13.89" length="4.72" shape="204.03,479.94 203.95,480.01 203.04,480.14 202.38,479.50 201.98,478.07"/>
      </lanes>
   </edge>

   <edge id=":331525908_2" function="internal">
      <lanes>
         <lane id=":331525908_2_0" depart="0" maxspeed="20.83" length="5.06" shape="198.02,479.96 199.38,480.27 200.50,480.05 201.36,479.32 201.98,478.07"/>
      </lanes>
   </edge>

   <edge id=":331525908_3" function="internal">
      <lanes>
         <lane id=":331525908_3_0" depart="0" maxspeed="27.78" length="9.58" shape="198.02,479.96 207.06,483.15"/>
      </lanes>
   </edge>

   <edge id=":331525908_4" function="internal">
      <lanes>
         <lane id=":331525908_4_0" depart="0" maxspeed="27.78" length="9.74" shape="196.85,483.04 206.04,486.29"/>
      </lanes>
   </edge>

   <edge id=":331525911_0" function="internal">
      <lanes>
         <lane id=":331525911_0_0" depart="0" maxspeed="13.89" length="9.02" shape="347.20,355.05 344.41,363.63"/>
      </lanes>
   </edge>

   <edge id=":331525911_1" function="internal">
      <lanes>
         <lane id=":331525911_1_0" depart="0" maxspeed="13.89" length="6.80" shape="347.20,355.05 345.88,357.45 343.58,359.00"/>
      </lanes>
   </edge>

   <edge id=":331525911_9" function="internal">
      <lanes>
         <lane id=":331525911_9_0" depart="0" maxspeed="13.89" length="3.28" shape="343.58,359.00 341.85,359.38 339.14,358.91"/>
      </lanes>
   </edge>

   <edge id=":331525911_2" function="internal">
      <lanes>
         <lane id=":331525911_2_0" depart="0" maxspeed="13.89" length="0.10" shape="347.20,355.05 346.07,355.86"/>
      </lanes>
   </edge>

   <edge id=":331525911_10" function="internal">
      <lanes>
         <lane id=":331525911_10_0" depart="0" maxspeed="13.89" length="4.72" shape="346.07,355.86 345.99,355.92 345.07,356.01 344.45,355.33 344.12,353.88"/>
      </lanes>
   </edge>

   <edge id=":331525911_3" function="internal">
      <lanes>
         <lane id=":331525911_3_0" depart="0" maxspeed="13.89" length="4.96" shape="340.15,355.77 341.48,356.00 342.59,355.76 343.47,355.05 344.12,353.88"/>
      </lanes>
   </edge>

   <edge id=":331525911_4" function="internal">
      <lanes>