<additional>
   <tl-logic id="296637196" type="static" programID="1" offset="0">
       <phase duration="12" state="GG"/>
       <phase duration="29" state="yy"/>
   </tl-logic>
   <tl-logic id="296637207" type="static" programID="1" offset="0">
       <phase duration="13" state="GGrr"/>
       <phase duration="18" state="yyrr"/>
       <phase duration="39" state="rrGG"/>
       <phase duration="5" state="rryy"/>
   </tl-logic>
   <tl-logic id="296637256" type="static" programID="1" offset="0">
       <phase duration="25" state="GgGGr"/>
       <phase duration="5" state="yyyyr"/>
       <phase duration="31" state="rrGGG"/>
       <phase duration="5" state="rryyy"/>
   </tl-logic>
   <tl-logic id="296637299" type="static" programID="1" offset="0">
       <phase duration="6" state="GGrr"/>
       <phase duration="5" state="yyrr"/>
       <phase duration="12" state="rrGG"/>
       <phase duration="5" state="rryy"/>
   </tl-logic>
   <tl-logic id="296637337" type="static" programID="1" offset="0">
       <phase duration="44" state="rrrrGGGggGGGgg"/>
       <phase duration="5" state="rrrryyyggyyygg"/>
       <phase duration="15" state="rrrrrrrGGrrrGG"/>
       <phase duration="5" state="rrrrrrryyrrryy"/>
       <phase duration="14" state="GGGgGrrrrrrrrr"/>
       <phase duration="5" state="yyyyyrrrrrrrrr"/>
   </tl-logic>
   <tl-logic id="296637345" type="static" programID="1" offset="0">
       <phase duration="15" state="GGGgrrrGGgg"/>
       <phase duration="18" state="yyygrrryygg"/>
       <phase duration="5" state="rrrGrrrrrGG"/>
       <phase duration="5" state="rrryrrrrryy"/>
       <phase duration="16" state="rrrrGGGrrrr"/>
       <phase duration="33" state="rrrryyyrrrr"/>
   </tl-logic>
   <tl-logic id="296637359" type="static" programID="1" offset="0">
       <phase duration="27" state="GGGgrrrGGgg"/>
       <phase duration="11" state="yyygrrryygg"/>
       <phase duration="5" state="rrrGrrrrrGG"/>
       <phase duration="15" state="rrryrrrrryy"/>
       <phase duration="19" state="rrrrGGGrrrr"/>
       <phase duration="15" state="rrrryyyrrrr"/>
   </tl-logic>
   <tl-logic id="296637421" type="static" programID="1" offset="0">
       <phase duration="7" state="GGrr"/>
       <phase duration="5" state="yyrr"/>
       <phase duration="12" state="rrGG"/>
       <phase duration="5" state="rryy"/>
   </tl-logic>
   <tl-logic id="296637430" type="static" programID="1" offset="0">
       <phase duration="18" state="GGrr"/>
       <phase duration="5" state="yyrr"/>
       <phase duration="32" state="rrGG"/>
       <phase duration="14" state="rryy"/>
   </tl-logic>
   <tl-logic id="296637438" type="static" programID="1" offset="0">
       <phase duration="5" state="GGrr"/>
       <phase duration="24" state="yyrr"/>
       <phase duration="38" state="rrGG"/>
       <phase duration="21" state="rryy"/>
   </tl-logic>
   <tl-logic id="296637447" type="static" programID="1" offset="0">
       <phase duration="10" state="Gr"/>
       <phase duration="34" state="yr"/>
       <phase duration="23" state="rG"/>
       <phase duration="5" state="ry"/>
   </tl-logic>
   <tl-logic id="296637521" type="static" programID="1" offset="0">
       <phase duration="24" state="GGrr"/>
       <phase duration="5" state="yyrr"/>
       <phase duration="7" state="rrGG"/>
       <phase duration="5" state="rryy"/>
   </tl-logic>
   <tl-logic id="296637528" type="static" programID="1" offset="0">
       <phase duration="14" state="GGrr"/>
       <phase duration="26" state="yyrr"/>
       <phase duration="15" state="rrGG"/>
       <phase duration="6" state="rryy"/>
   </tl-logic>
   <tl-logic id="296637539" type="static" programID="1" offset="0">
       <phase duration="26" state="GGrr"/>
       <phase duration="24" state="yyrr"/>
       <phase duration="26" state="rrGG"/>
       <phase duration="5" state="rryy"/>
   </tl-logic>
   <tl-logic id="296637549" type="static" programID="1" offset="0">
       <phase duration="23" state="GGrr"/>
       <phase duration="31" state="yyrr"/>
       <phase duration="23" state="rrGG"/>
       <phase duration="7" state="rryy"/>
   </tl-logic>
   <tl-logic id="296637610" type="static" programID="1" offset="0">
       <phase duration="11" state="GGrr"/>
       <phase duration="14" state="yyrr"/>
       <phase duration="32" state="rrGG"/>
       <phase duration="31" state="rryy"/>
   </tl-logic>
   <tl-logic id="296637617" type="static" programID="1" offset="0">
       <phase duration="50" state="GGrr"/>
       <phase duration="21" state="yyrr"/>
       <phase duration="5" state="rrGG"/>
       <phase duration="15" state="rryy"/>
   </tl-logic>
   <tl-logic id="296637626" type="static" programID="1" offset="0">
       <phase duration="11" state="GGgrrrGgg"/>
       <phase duration="17" state="yygrrrygg"/>
       <phase duration="35" state="rrGrrrrGG"/>
       <phase duration="10" state="rryrrrryy"/>
       <phase duration="25" state="rrrGGGrrr"/>
       <phase duration="24" state="rrryyyrrr"/>
   </tl-logic>
   <tl-logic id="296637748" type="static" programID="1" offset="0">
       <phase duration="5" state="GGrr"/>
       <phase duration="35" state="yyrr"/>
       <phase duration="18" state="rrGG"/>
       <phase duration="5" state="rryy"/>
   </tl-logic>
   <tl-logic id="296666303" type="static" programID="1" offset="0">
       <phase duration="5" state="GGrr"/>
       <phase duration="34" state="yyrr"/>
       <phase duration="29" state="rrGG"/>
       <phase duration="33" state="rryy"/>
   </tl-logic>
   <tl-logic id="296666425" type="static" programID="1" offset="0">
       <phase duration="5" state="GGrr"/>
       <phase duration="27" state="yyrr"/>
       <phase duration="24" state="rrGG"/>
       <phase duration="36" state="rryy"/>
   </tl-logic>
   <tl-logic id="296666497" type="static" programID="1" offset="0">
       <phase duration="26" state="GGrr"/>
       <phase duration="9" state="yyrr"/>
       <phase duration="26" state="rrGG"/>
       <phase duration="5" state="rryy"/>
   </tl-logic>
   <tl-logic id="296666518" type="static" programID="1" offset="0">
       <phase duration="9" state="GGrr"/>
       <phase duration="5" state="yyrr"/>
       <phase duration="21" state="rrGG"/>
       <phase duration="18" state="rryy"/>
   </tl-logic>
   <tl-logic id="296666546" type="static" programID="1" offset="0">
       <phase duration="29" state="GGrr"/>
       <phase duration="30" state="yyrr"/>
       <phase duration="21" state="rrGG"/>
       <phase duration="5" state="rryy"/>
   </tl-logic>
   <tl-logic id="296666558" type="static" programID="1" offset="0">
       <phase duration="35" state="GGrr"/>
       <phase duration="5" state="yyrr"/>
       <phase duration="25" state="rrGG"/>
       <phase duration="5" state="rryy"/>
   </tl-logic>
   <tl-logic id="296666580" type="static" programID="1" offset="0">
       <phase duration="35" state="GGrr"/>
       <phase duration="18" state="yyrr"/>
       <phase duration="17" state="rrGG"/>
       <phase duration="7" state="rryy"/>
   </tl-logic>
   <tl-logic id="296666611" type="static" programID="1" offset="0">
       <phase duration="13" state="GGggGGGgrrr"/>
       <phase duration="14" state="yyggyyygrrr"/>
       <phase duration="5" state="rrGGrrrGrrr"/>
       <phase duration="5" state="rryyrrryrrr"/>
       <phase duration="5" state="rrrrrrrrGGG"/>
       <phase duration="5" state="rrrrrrrryyy"/>
   </tl-logic>
   <tl-logic id="296666695" type="static" programID="1" offset="0">
       <phase duration="40" state="GGGgrrrGGgg"/>
       <phase duration="5" state="yyygrrryygg"/>
       <phase duration="5" state="rrrGrrrrrGG"/>
       <phase duration="14" state="rrryrrrrryy"/>
       <phase duration="24" state="rrrrGGGrrrr"/>
       <phase duration="12" state="rrrryyyrrrr"/>
   </tl-logic>
   <tl-logic id="296666708" type="static" programID="1" offset="0">
       <phase duration="10" state="GGGgrrrGGgg"/>
       <phase duration="9" state="yyygrrryygg"/>
       <phase duration="7" state="rrrGrrrrrGG"/>
       <phase duration="5" state="rrryrrrrryy"/>
       <phase duration="19" state="rrrrGGGrrrr"/>
       <phase duration="5" state="rrrryyyrrrr"/>
   </tl-logic>
   <tl-logic id="296666714" type="static" programID="1" offset="0">
       <phase duration="36" state="GGggGGGgrrr"/>
       <phase duration="19" state="yyggyyygrrr"/>
       <phase duration="5" state="rrGGrrrGrrr"/>
       <phase duration="5" state="rryyrrryrrr"/>
       <phase duration="5" state="rrrrrrrrGGG"/>
       <phase duration="5" state="rrrrrrrryyy"/>
   </tl-logic>
   <tl-logic id="296666718" type="static" programID="1" offset="0">
       <phase duration="50" state="GGGgrrrGGgg"/>
       <phase duration="49" state="yyygrrryygg"/>
       <phase duration="5" state="rrrGrrrrrGG"/>
       <phase duration="24" state="rrryrrrrryy"/>
       <phase duration="10" state="rrrrGGGrrrr"/>
       <phase duration="6" state="rrrryyyrrrr"/>
   </tl-logic>
   <tl-logic id="296734964" type="static" programID="1" offset="0">
       <phase duration="26" state="GGrr"/>
       <phase duration="5" state="yyrr"/>
       <phase duration="30" state="rrGG"/>
       <phase duration="14" state="rryy"/>
   </tl-logic>
   <tl-logic id="296734968" type="static" programID="1" offset="0">
       <phase duration="10" state="GGrr"/>
       <phase duration="6" state="yyrr"/>
       <phase duration="30" state="rrGG"/>
       <phase duration="7" state="rryy"/>
   </tl-logic>
   <tl-logic id="296734980" type="static" programID="1" offset="0">
       <phase duration="11" state="GGrr"/>
       <phase duration="25" state="yyrr"/>
       <phase duration="12" state="rrGG"/>
       <phase duration="26" state="rryy"/>
   </tl-logic>
   <tl-logic id="296734981" type="static" programID="1" offset="0">
       <phase duration="22" state="GGrr"/>
       <phase duration="29" state="yyrr"/>
       <phase duration="5" state="rrGG"/>
       <phase duration="5" state="rryy"/>
   </tl-logic>
   <tl-logic id="296734996" type="static" programID="1" offset="0">
       <phase duration="6" state="GGrr"/>
       <phase duration="5" state="yyrr"/>
       <phase duration="26" state="rrGG"/>
       <phase duration="12" state="rryy"/>
   </tl-logic>
   <tl-logic id="296735001" type="static" programID="1" offset="0">
       <phase duration="5" state="GGrr"/>
       <phase duration="19" state="yyrr"/>
       <phase duration="35" state="rrGG"/>
       <phase duration="5" state="rryy"/>
   </tl-logic>
   <tl-logic id="296735005" type="static" programID="1" offset="0">
       <phase duration="28" state="GGrr"/>
       <phase duration="25" state="yyrr"/>
       <phase duration="19" state="rrGG"/>
       <phase duration="8" state="rryy"/>
   </tl-logic>
   <tl-logic id="297133314" type="static" programID="1" offset="0">
       <phase duration="34" state="GGGrr"/>
       <phase duration="12" state="yyyrr"/>
       <phase duration="26" state="rrrGG"/>
       <phase duration="5" state="rrryy"/>
   </tl-logic>
   <tl-logic id="301844169" type="static" programID="1" offset="0">
       <phase duration="7" state="GgGr"/>
       <phase duration="16" state="yyyr"/>
       <phase duration="35" state="rrGG"/>
       <phase duration="8" state="rryy"/>
   </tl-logic>
</additional>
