<additional>

 <tl-logic id="296637196" type="static" programID="1" offset="0">
      <phase duration="31" state="GG"/>
      <phase duration="4" state="yy"/>
   </tl-logic>

   <tl-logic id="296637207" type="static" programID="1" offset="0">
      <phase duration="31" state="GGrr"/>
      <phase duration="7" state="yyrr"/>
      <phase duration="31" state="rrGG"/>
      <phase duration="7" state="rryy"/>
   </tl-logic>

   <tl-logic id="296637256" type="static" programID="1" offset="0">
      <phase duration="31" state="GgGGr"/>
      <phase duration="9" state="yyyyr"/>
      <phase duration="31" state="rrGGG"/>
      <phase duration="9" state="rryyy"/>
   </tl-logic>

   <tl-logic id="296637299" type="static" programID="1" offset="0">
      <phase duration="31" state="GGrr"/>
      <phase duration="7" state="yyrr"/>
      <phase duration="31" state="rrGG"/>
      <phase duration="7" state="rryy"/>
   </tl-logic>

   <tl-logic id="296637337" type="static" programID="1" offset="0">
      <phase duration="31" state="rrrrGGGggGGGgg"/>
      <phase duration="9" state="rrrryyyggyyygg"/>
      <phase duration="6" state="rrrrrrrGGrrrGG"/>
      <phase duration="9" state="rrrrrrryyrrryy"/>
      <phase duration="31" state="GGGgGrrrrrrrrr"/>
      <phase duration="9" state="yyyyyrrrrrrrrr"/>
   </tl-logic>

   <tl-logic id="296637345" type="static" programID="1" offset="0">
      <phase duration="31" state="GGGgrrrGGgg"/>
      <phase duration="9" state="yyygrrryygg"/>
      <phase duration="6" state="rrrGrrrrrGG"/>
      <phase duration="9" state="rrryrrrrryy"/>
      <phase duration="31" state="rrrrGGGrrrr"/>
      <phase duration="9" state="rrrryyyrrrr"/>
   </tl-logic>

   <tl-logic id="296637359" type="static" programID="1" offset="0">
      <phase duration="31" state="GGGgrrrGGgg"/>
      <phase duration="9" state="yyygrrryygg"/>
      <phase duration="6" state="rrrGrrrrrGG"/>
      <phase duration="9" state="rrryrrrrryy"/>
      <phase duration="31" state="rrrrGGGrrrr"/>
      <phase duration="9" state="rrrryyyrrrr"/>
   </tl-logic>

   <tl-logic id="296637421" type="static" programID="1" offset="0">
      <phase duration="31" state="GGrr"/>
      <phase duration="7" state="yyrr"/>
      <phase duration="31" state="rrGG"/>
      <phase duration="7" state="rryy"/>
   </tl-logic>

   <tl-logic id="296637430" type="static" programID="1" offset="0">
      <phase duration="31" state="GGrr"/>
      <phase duration="7" state="yyrr"/>
      <phase duration="31" state="rrGG"/>
      <phase duration="7" state="rryy"/>
   </tl-logic>

   <tl-logic id="296637438" type="static" programID="1" offset="0">
      <phase duration="31" state="GGrr"/>
      <phase duration="7" state="yyrr"/>
      <phase duration="31" state="rrGG"/>
      <phase duration="7" state="rryy"/>
   </tl-logic>

   <tl-logic id="296637447" type="static" programID="1" offset="0">
      <phase duration="31" state="Gr"/>
      <phase duration="7" state="yr"/>
      <phase duration="31" state="rG"/>
      <phase duration="7" state="ry"/>
   </tl-logic>

   <tl-logic id="296637521" type="static" programID="1" offset="0">
      <phase duration="31" state="GGrr"/>
      <phase duration="4" state="yyrr"/>
      <phase duration="31" state="rrGG"/>
      <phase duration="4" state="rryy"/>
   </tl-logic>

   <tl-logic id="296637528" type="static" programID="1" offset="0">
      <phase duration="31" state="GGrr"/>
      <phase duration="4" state="yyrr"/>
      <phase duration="31" state="rrGG"/>
      <phase duration="4" state="rryy"/>
   </tl-logic>

   <tl-logic id="296637539" type="static" programID="1" offset="0">
      <phase duration="31" state="GGrr"/>
      <phase duration="4" state="yyrr"/>
      <phase duration="31" state="rrGG"/>
      <phase duration="4" state="rryy"/>
   </tl-logic>

   <tl-logic id="296637549" type="static" programID="1" offset="0">
      <phase duration="31" state="GGrr"/>
      <phase duration="7" state="yyrr"/>
      <phase duration="31" state="rrGG"/>
      <phase duration="7" state="rryy"/>
   </tl-logic>

   <tl-logic id="296637610" type="static" programID="1" offset="0">
      <phase duration="31" state="GGrr"/>
      <phase duration="4" state="yyrr"/>
      <phase duration="31" state="rrGG"/>
      <phase duration="4" state="rryy"/>
   </tl-logic>

   <tl-logic id="296637617" type="static" programID="1" offset="0">
      <phase duration="31" state="GGrr"/>
      <phase duration="7" state="yyrr"/>
      <phase duration="31" state="rrGG"/>
      <phase duration="7" state="rryy"/>
   </tl-logic>

   <tl-logic id="296637626" type="static" programID="1" offset="0">
      <phase duration="31" state="GGgrrrGgg"/>
      <phase duration="4" state="yygrrrygg"/>
      <phase duration="6" state="rrGrrrrGG"/>
      <phase duration="4" state="rryrrrryy"/>
      <phase duration="31" state="rrrGGGrrr"/>
      <phase duration="4" state="rrryyyrrr"/>
   </tl-logic>

   <tl-logic id="296637748" type="static" programID="1" offset="0">
      <phase duration="31" state="GGrr"/>
      <phase duration="4" state="yyrr"/>
      <phase duration="31" state="rrGG"/>
      <phase duration="4" state="rryy"/>
   </tl-logic>

   <tl-logic id="296666303" type="static" programID="1" offset="0">
      <phase duration="31" state="GGrr"/>
      <phase duration="4" state="yyrr"/>
      <phase duration="31" state="rrGG"/>
      <phase duration="4" state="rryy"/>
   </tl-logic>

   <tl-logic id="296666425" type="static" programID="1" offset="0">
      <phase duration="31" state="GGrr"/>
      <phase duration="4" state="yyrr"/>
      <phase duration="31" state="rrGG"/>

      <phase duration="4" state="rryy"/>
   </tl-logic>

   
   <tl-logic id="296666497" type="static" programID="1" offset="0">
      <phase duration="31" state="GGrr"/>
      <phase duration="7" state="yyrr"/>
      <phase duration="31" state="rrGG"/>
      <phase duration="7" state="rryy"/>
   </tl-logic>

   <tl-logic id="296666518" type="static" programID="1" offset="0">
      <phase duration="31" state="GGrr"/>
      <phase duration="7" state="yyrr"/>
      <phase duration="31" state="rrGG"/>
      <phase duration="7" state="rryy"/>
   </tl-logic>

   <tl-logic id="296666546" type="static" programID="1" offset="0">
      <phase duration="31" state="GGrr"/>
      <phase duration="7" state="yyrr"/>
      <phase duration="31" state="rrGG"/>
      <phase duration="7" state="rryy"/>
   </tl-logic>

   <tl-logic id="296666558" type="static" programID="1" offset="0">
      <phase duration="31" state="GGrr"/>
      <phase duration="7" state="yyrr"/>
      <phase duration="31" state="rrGG"/>
      <phase duration="7" state="rryy"/>
   </tl-logic>

   <tl-logic id="296666580" type="static" programID="1" offset="0">
      <phase duration="31" state="GGrr"/>
      <phase duration="7" state="yyrr"/>
      <phase duration="31" state="rrGG"/>
      <phase duration="7" state="rryy"/>
   </tl-logic>

   <tl-logic id="296666611" type="static" programID="1" offset="0">
      <phase duration="31" state="GGggGGGgrrr"/>
      <phase duration="9" state="yyggyyygrrr"/>
      <phase duration="6" state="rrGGrrrGrrr"/>
      <phase duration="9" state="rryyrrryrrr"/>
      <phase duration="31" state="rrrrrrrrGGG"/>
      <phase duration="9" state="rrrrrrrryyy"/>
   </tl-logic>

   <tl-logic id="296666695" type="static" programID="1" offset="0">
      <phase duration="31" state="GGGgrrrGGgg"/>
      <phase duration="9" state="yyygrrryygg"/>
      <phase duration="6" state="rrrGrrrrrGG"/>
      <phase duration="9" state="rrryrrrrryy"/>
      <phase duration="31" state="rrrrGGGrrrr"/>
      <phase duration="9" state="rrrryyyrrrr"/>
   </tl-logic>

   <tl-logic id="296666708" type="static" programID="1" offset="0">
      <phase duration="31" state="GGGgrrrGGgg"/>
      <phase duration="9" state="yyygrrryygg"/>
      <phase duration="6" state="rrrGrrrrrGG"/>
      <phase duration="9" state="rrryrrrrryy"/>
      <phase duration="31" state="rrrrGGGrrrr"/>
      <phase duration="9" state="rrrryyyrrrr"/>
   </tl-logic>

   <tl-logic id="296666714" type="static" programID="1" offset="0">
      <phase duration="31" state="GGggGGGgrrr"/>
      <phase duration="9" state="yyggyyygrrr"/>
      <phase duration="6" state="rrGGrrrGrrr"/>
      <phase duration="9" state="rryyrrryrrr"/>
      <phase duration="31" state="rrrrrrrrGGG"/>
      <phase duration="9" state="rrrrrrrryyy"/>
   </tl-logic>

   <tl-logic id="296666718" type="static" programID="1" offset="0">
      <phase duration="31" state="GGGgrrrGGgg"/>
      <phase duration="9" state="yyygrrryygg"/>
      <phase duration="6" state="rrrGrrrrrGG"/>
      <phase duration="9" state="rrryrrrrryy"/>
      <phase duration="31" state="rrrrGGGrrrr"/>
      <phase duration="9" state="rrrryyyrrrr"/>
   </tl-logic>

   <tl-logic id="296734964" type="static" programID="1" offset="0">
      <phase duration="31" state="GGrr"/>
      <phase duration="4" state="yyrr"/>
      <phase duration="31" state="rrGG"/>
      <phase duration="4" state="rryy"/>
   </tl-logic>

   <tl-logic id="296734968" type="static" programID="1" offset="0">
      <phase duration="31" state="GGrr"/>
      <phase duration="4" state="yyrr"/>
      <phase duration="31" state="rrGG"/>
      <phase duration="4" state="rryy"/>
   </tl-logic>

   <tl-logic id="296734980" type="static" programID="1" offset="0">
      <phase duration="31" state="GGrr"/>
      <phase duration="4" state="yyrr"/>
      <phase duration="31" state="rrGG"/>
      <phase duration="4" state="rryy"/>
   </tl-logic>

   <tl-logic id="296734981" type="static" programID="1" offset="0">
      <phase duration="31" state="GGrr"/>
      <phase duration="4" state="yyrr"/>
      <phase duration="31" state="rrGG"/>
      <phase duration="4" state="rryy"/>
   </tl-logic>


   <tl-logic id="296734996" type="static" programID="1" offset="0">
      <phase duration="31" state="GGrr"/>
      <phase duration="4" state="yyrr"/>
      <phase duration="31" state="rrGG"/>
      <phase duration="4" state="rryy"/>
   </tl-logic>

   <tl-logic id="296735001" type="static" programID="1" offset="0">
      <phase duration="31" state="GGrr"/>
      <phase duration="4" state="yyrr"/>
      <phase duration="31" state="rrGG"/>
      <phase duration="4" state="rryy"/>
   </tl-logic>

   <tl-logic id="296735005" type="static" programID="1" offset="0">
      <phase duration="31" state="GGrr"/>
      <phase duration="4" state="yyrr"/>
      <phase duration="31" state="rrGG"/>
      <phase duration="4" state="rryy"/>
   </tl-logic>


   <tl-logic id="297133314" type="static" programID="1" offset="0">
      <phase duration="31" state="GGGrr"/>
      <phase duration="9" state="yyyrr"/>
      <phase duration="31" state="rrrGG"/>
      <phase duration="9" state="rrryy"/>
   </tl-logic>


   <tl-logic id="301844169" type="static" programID="1" offset="0">
      <phase duration="31" state="GgGr"/>
      <phase duration="4" state="yyyr"/>
      <phase duration="31" state="rrGG"/>
      <phase duration="4" state="rryy"/>
   </tl-logic>
   
</additional>