<?xml version="1.0"?>

<!-- generated on 06/07/10 13:02:20 by SUMO netconvert Version 0.11.0
<configuration>

    <input
        osm-files="C:\Documents and Settings\JoseManuel\Escritorio\ubuntu\manets\vanet_examples\argentina\rivadavia.osm.xml"
    />

    <output
        output-file="C:\Documents and Settings\JoseManuel\Escritorio\ubuntu\manets\rivadavia.net.xml"
    />

    <projection
        use-projection="true"
    />

</configuration>
-->

<net>

   <location netOffset="4694622.50,6392403.50" convBoundary="0.00,0.00,8948.50,7207.00" origBoundary="-62.293907,-38.744591,-62.236713,-38.698627" projParameter="+proj=utm +ellps=bessel +units=m"/>

   <edge id=":296637196_0" function="internal">
      <lanes>
         <lane id=":296637196_0_0" depart="0" maxspeed="13.89" length="5.13" shape="3603.05,4561.20 3601.69,4561.32 3600.68,4561.86 3600.01,4562.84 3599.69,4564.24"/>
      </lanes>
   </edge>

   <edge id=":296637196_1" function="internal">
      <lanes>
         <lane id=":296637196_1_0" depart="0" maxspeed="13.89" length="6.31" shape="3603.05,4561.20 3596.74,4560.99"/>
      </lanes>
   </edge>

   <edge id=":296637207_0" function="internal">
      <lanes>
         <lane id=":296637207_0_0" depart="0" maxspeed="13.89" length="6.30" shape="3449.70,4560.51 3443.41,4560.31"/>
      </lanes>
   </edge>

   <edge id=":296637207_1" function="internal">
      <lanes>
         <lane id=":296637207_1_0" depart="0" maxspeed="18.06" length="5.08" shape="3449.70,4560.51 3448.32,4560.31 3447.35,4559.70 3446.82,4558.70 3446.71,4557.30"/>
      </lanes>
   </edge>

   <edge id=":296637207_2" function="internal">
      <lanes>
         <lane id=":296637207_2_0" depart="0" maxspeed="18.06" length="5.00" shape="3446.32,4563.59 3446.21,4562.23 3445.68,4561.23 3444.75,4560.59 3443.41,4560.31"/>
      </lanes>
   </edge>

   <edge id=":296637207_3" function="internal">
      <lanes>
         <lane id=":296637207_3_0" depart="0" maxspeed="22.22" length="6.30" shape="3446.32,4563.59 3446.71,4557.30"/>
      </lanes>
   </edge>

   <edge id=":296637218_0" function="internal">
      <lanes>
         <lane id=":296637218_0_0" depart="0" maxspeed="13.89" length="5.11" shape="3265.55,4549.68 3264.20,4549.80 3263.19,4550.35 3262.53,4551.32 3262.21,4552.72"/>
      </lanes>
   </edge>

   <edge id=":296637218_1" function="internal">
      <lanes>
         <lane id=":296637218_1_0" depart="0" maxspeed="13.89" length="6.28" shape="3265.55,4549.68 3259.27,4549.46"/>
      </lanes>
   </edge>

   <edge id=":296637218_2" function="internal">
      <lanes>
         <lane id=":296637218_2_0" depart="0" maxspeed="13.89" length="6.31" shape="3262.57,4546.41 3262.21,4552.72"/>
      </lanes>
   </edge>

   <edge id=":296637218_3" function="internal">
      <lanes>
         <lane id=":296637218_3_0" depart="0" maxspeed="13.89" length="5.11" shape="3262.57,4546.41 3262.34,4547.76 3261.71,4548.72 3260.69,4549.28 3259.27,4549.46"/>
      </lanes>
   </edge>

   <edge id=":296637225_0" function="internal">
      <lanes>
         <lane id=":296637225_0_0" depart="0" maxspeed="13.89" length="6.35" shape="3076.17,4547.04 3069.82,4546.89"/>
      </lanes>
   </edge>

   <edge id=":296637225_1" function="internal">
      <lanes>
         <lane id=":296637225_1_0" depart="0" maxspeed="13.89" length="5.05" shape="3076.17,4547.04 3074.79,4546.83 3073.83,4546.22 3073.30,4545.22 3073.17,4543.84"/>
      </lanes>
   </edge>

   <edge id=":296637225_2" function="internal">
      <lanes>
         <lane id=":296637225_2_0" depart="0" maxspeed="13.89" length="5.06" shape="3072.72,4550.17 3072.65,4548.78 3072.14,4547.76 3071.19,4547.13 3069.82,4546.89"/>
      </lanes>
   </edge>

   <edge id=":296637225_3" function="internal">
      <lanes>
         <lane id=":296637225_3_0" depart="0" maxspeed="13.89" length="6.35" shape="3072.72,4550.17 3073.17,4543.84"/>
      </lanes>
   </edge>

   <edge id=":296637233_0" function="internal">
      <lanes>
         <lane id=":296637233_0_0" depart="0" maxspeed="13.89" length="0.10" shape="2877.50,4540.00 2877.50,4540.00"/>
      </lanes>
   </edge>

   <edge id=":296637233_1" function="internal">
      <lanes>
         <lane id=":296637233_1_0" depart="0" maxspeed="13.89" length="0.10" shape="2877.50,4540.00 2877.50,4540.00"/>
      </lanes>
   </edge>

   <edge id=":296637233_2" function="internal">
      <lanes>
         <lane id=":296637233_2_0" depart="0" maxspeed="13.89" length="0.10" shape="2877.50,4540.00 2877.50,4540.00"/>
      </lanes>
   </edge>

   <edge id=":296637233_3" function="internal">
      <lanes>
         <lane id=":296637233_3_0" depart="0" maxspeed="13.89" length="0.10" shape="2877.50,4540.00 2877.50,4540.00"/>
      </lanes>
   </edge>

   <edge id=":296637256_0" function="internal">
      <lanes>
         <lane id=":296637256_0_0" depart="0" maxspeed="25.00" length="5.02" shape="3634.16,4289.65 3634.26,4291.02 3634.78,4292.03 3635.71,4292.66 3637.07,4292.93"/>
      </lanes>
   </edge>

   <edge id=":296637256_1" function="internal">
      <lanes>
         <lane id=":296637256_1_0" depart="0" maxspeed="27.78" length="0.10" shape="3630.87,4289.42 3630.02,4290.51"/>
      </lanes>
   </edge>

   <edge id=":296637256_5" function="internal">
      <lanes>
         <lane id=":296637256_5_0" depart="0" maxspeed="27.78" length="4.72" shape="3630.02,4290.51 3629.96,4290.59 3629.11,4290.95 3628.31,4290.48 3627.58,4289.19"/>
      </lanes>
   </edge>

   <edge id=":296637256_2" function="internal">
      <lanes>
         <lane id=":296637256_2_0" depart="0" maxspeed="25.00" length="5.11" shape="3620.98,4291.99 3622.34,4291.87 3623.35,4291.33 3623.99,4290.36 3624.29,4288.96"/>
      </lanes>
   </edge>

   <edge id=":296637256_3" function="internal">
      <lanes>
         <lane id=":296637256_3_0" depart="0" maxspeed="25.00" length="7.93" shape="3620.98,4291.99 3623.78,4291.96 3625.82,4291.49 3627.08,4290.56 3627.58,4289.19"/>
      </lanes>
   </edge>

   <edge id=":296637256_4" function="internal">
      <lanes>
         <lane id=":296637256_4_0" depart="0" maxspeed="22.22" length="16.12" shape="3620.98,4291.99 3624.89,4292.23 3629.02,4292.48 3633.15,4292.72 3637.07,4292.93"/>
      </lanes>
   </edge>

   <edge id=":296637267_0" function="internal">
      <lanes>
         <lane id=":296637267_0_0" depart="0" maxspeed="22.22" length="6.24" shape="2894.35,4251.38 2900.58,4251.69"/>
      </lanes>
   </edge>

   <edge id=":296637267_1" function="internal">
      <lanes>
         <lane id=":296637267_1_0" depart="0" maxspeed="18.06" length="5.04" shape="2894.35,4251.38 2895.72,4251.63 2896.66,4252.26 2897.18,4253.26 2897.28,4254.64"/>
      </lanes>
   </edge>

   <edge id=":296637281_0" function="internal">
      <lanes>
         <lane id=":296637281_0_0" depart="0" maxspeed="18.06" length="5.00" shape="3085.41,4262.81 3086.78,4262.70 3087.78,4262.18 3088.42,4261.25 3088.70,4259.90"/>
      </lanes>
   </edge>

   <edge id=":296637281_1" function="internal">
      <lanes>
         <lane id=":296637281_1_0" depart="0" maxspeed="22.22" length="6.20" shape="3085.41,4262.81 3091.60,4263.19"/>
      </lanes>
   </edge>

   <edge id=":296637281_2" function="internal">
      <lanes>
         <lane id=":296637281_2_0" depart="0" maxspeed="13.89" length="6.22" shape="3088.33,4266.11 3088.70,4259.90"/>
      </lanes>
   </edge>

   <edge id=":296637281_3" function="internal">
      <lanes>
         <lane id=":296637281_3_0" depart="0" maxspeed="18.06" length="5.01" shape="3088.33,4266.11 3088.60,4264.76 3089.23,4263.82 3090.24,4263.30 3091.60,4263.19"/>
      </lanes>
   </edge>

   <edge id=":296637288_0" function="internal">
      <lanes>
         <lane id=":296637288_0_0" depart="0" maxspeed="18.06" length="5.06" shape="3268.79,4270.83 3268.86,4272.23 3269.37,4273.24 3270.31,4273.88 3271.68,4274.13"/>
      </lanes>
   </edge>

   <edge id=":296637288_1" function="internal">
      <lanes>
         <lane id=":296637288_1_0" depart="0" maxspeed="13.89" length="6.31" shape="3268.79,4270.83 3268.43,4277.13"/>
      </lanes>
   </edge>

   <edge id=":296637288_2" function="internal">
      <lanes>
         <lane id=":296637288_2_0" depart="0" maxspeed="22.22" length="6.24" shape="3265.45,4273.81 3271.68,4274.13"/>
      </lanes>
   </edge>

   <edge id=":296637288_3" function="internal">
      <lanes>
         <lane id=":296637288_3_0" depart="0" maxspeed="18.06" length="5.04" shape="3265.45,4273.81 3266.78,4274.09 3267.72,4274.74 3268.27,4275.75 3268.43,4277.13"/>
      </lanes>
   </edge>

   <edge id=":296637299_0" function="internal">
      <lanes>
         <lane id=":296637299_0_0" depart="0" maxspeed="18.06" length="5.03" shape="3461.86,4281.87 3463.24,4281.73 3464.24,4281.19 3464.87,4280.25 3465.11,4278.90"/>
      </lanes>
   </edge>

   <edge id=":296637299_1" function="internal">
      <lanes>
         <lane id=":296637299_1_0" depart="0" maxspeed="22.22" length="6.24" shape="3461.86,4281.87 3468.09,4282.20"/>
      </lanes>
   </edge>

   <edge id=":296637299_2" function="internal">
      <lanes>
         <lane id=":296637299_2_0" depart="0" maxspeed="18.06" length="6.25" shape="3464.79,4285.13 3465.11,4278.90"/>
      </lanes>
   </edge>

   <edge id=":296637299_3" function="internal">
      <lanes>
         <lane id=":296637299_3_0" depart="0" maxspeed="22.22" length="5.03" shape="3464.79,4285.13 3465.08,4283.78 3465.72,4282.83 3466.73,4282.31 3468.09,4282.20"/>
      </lanes>
   </edge>

   <edge id=":296637337_0" function="internal">
      <lanes>
         <lane id=":296637337_0_0" depart="0" maxspeed="18.06" length="5.01" shape="3648.49,4096.01 3647.12,4096.15 3646.13,4096.68 3645.51,4097.63 3645.26,4098.98"/>
      </lanes>
   </edge>

   <edge id=":296637337_1" function="internal">
      <lanes>
         <lane id=":296637337_1_0" depart="0" maxspeed="11.11" length="16.28" shape="3648.49,4096.01 3644.57,4095.59 3640.43,4094.86 3636.29,4094.16 3632.37,4093.78"/>
      </lanes>
   </edge>

   <edge id=":296637337_2" function="internal">
      <lanes>
         <lane id=":296637337_2_0" depart="0" maxspeed="18.06" length="3.22" shape="3648.49,4096.01 3647.47,4095.88"/>
      </lanes>
   </edge>

   <edge id=":296637337_14" function="internal">
      <lanes>
         <lane id=":296637337_14_0" depart="0" maxspeed="18.06" length="9.62" shape="3647.47,4095.88 3644.28,4095.46 3641.25,4094.22 3639.41,4092.31 3638.76,4089.71"/>
      </lanes>
   </edge>

   <edge id=":296637337_3" function="internal">
      <lanes>
         <lane id=":296637337_3_0" depart="0" maxspeed="8.33" length="0.10" shape="3648.49,4096.01 3647.37,4095.19"/>
      </lanes>
   </edge>

   <edge id=":296637337_15" function="internal">
      <lanes>
         <lane id=":296637337_15_0" depart="0" maxspeed="8.33" length="4.72" shape="3647.37,4095.19 3647.29,4095.13 3646.91,4094.29 3647.36,4093.48 3648.64,4092.72"/>
      </lanes>
   </edge>

   <edge id=":296637337_4" function="internal">
      <lanes>
         <lane id=":296637337_4_0" depart="0" maxspeed="18.06" length="5.10" shape="3645.36,4089.57 3645.59,4090.89 3646.21,4091.86 3647.23,4092.47 3648.64,4092.72"/>
      </lanes>
   </edge>

   <edge id=":296637337_5" function="internal">
      <lanes>
         <lane id=":296637337_5_0" depart="0" maxspeed="27.78" length="9.41" shape="3645.36,4089.57 3645.26,4098.98"/>
      </lanes>
   </edge>

   <edge id=":296637337_6" function="internal">
      <lanes>
         <lane id=":296637337_6_0" depart="0" maxspeed="27.78" length="9.21" shape="3642.06,4089.64 3641.96,4098.85"/>
      </lanes>
   </edge>

   <edge id=":296637337_7" function="internal">
      <lanes>
         <lane id=":296637337_7_0" depart="0" maxspeed="20.83" length="5.22" shape="3642.06,4089.64 3641.49,4091.55 3637.60,4093.39"/>
      </lanes>
   </edge>

   <edge id=":296637337_16" function="internal">
      <lanes>
         <lane id=":296637337_16_0" depart="0" maxspeed="20.83" length="6.42" shape="3637.60,4093.39 3636.64,4093.62 3632.37,4093.78"/>
      </lanes>
   </edge>

   <edge id=":296637337_8" function="internal">
      <lanes>
         <lane id=":296637337_8_0" depart="0" maxspeed="27.78" length="0.10" shape="3642.06,4089.64 3641.31,4090.81"/>
      </lanes>
   </edge>

   <edge id=":296637337_17" function="internal">
      <lanes>
         <lane id=":296637337_17_0" depart="0" maxspeed="27.78" length="4.72" shape="3641.31,4090.81 3641.26,4090.90 3640.44,4091.33 3639.61,4090.93 3638.76,4089.71"/>
      </lanes>
   </edge>

   <edge id=":296637337_9" function="internal">
      <lanes>
         <lane id=":296637337_9_0" depart="0" maxspeed="20.83" length="6.41" shape="3635.37,4098.59 3635.25,4096.52 3634.71,4095.03 3633.75,4094.12 3632.37,4093.78"/>
      </lanes>
   </edge>

   <edge id=":296637337_10" function="internal">
      <lanes>
         <lane id=":296637337_10_0" depart="0" maxspeed="27.78" length="8.81" shape="3635.37,4098.59 3635.46,4089.78"/>
      </lanes>
   </edge>

   <edge id=":296637337_11" function="internal">
      <lanes>
         <lane id=":296637337_11_0" depart="0" maxspeed="27.78" length="9.01" shape="3638.66,4098.72 3638.76,4089.71"/>
      </lanes>
   </edge>

   <edge id=":296637337_12" function="internal">
      <lanes>
         <lane id=":296637337_12_0" depart="0" maxspeed="18.06" length="6.37" shape="3638.66,4098.72 3639.38,4095.93 3643.64,4093.18"/>
      </lanes>
   </edge>

   <edge id=":296637337_18" function="internal">
      <lanes>
         <lane id=":296637337_18_0" depart="0" maxspeed="18.06" length="6.76" shape="3643.64,4093.18 3644.37,4092.93 3648.64,4092.72"/>
      </lanes>
   </edge>

   <edge id=":296637337_13" function="internal">
      <lanes>
         <lane id=":296637337_13_0" depart="0" maxspeed="27.78" length="0.10" shape="3638.66,4098.72 3639.48,4097.60"/>
      </lanes>
   </edge>

   <edge id=":296637337_19" function="internal">
      <lanes>
         <lane id=":296637337_19_0" depart="0" maxspeed="27.78" length="4.72" shape="3639.48,4097.60 3639.54,4097.52 3640.38,4097.14 3641.19,4097.58 3641.96,4098.85"/>
      </lanes>
   </edge>

   <edge id=":296637345_0" function="internal">
      <lanes>
         <lane id=":296637345_0_0" depart="0" maxspeed="25.00" length="5.64" shape="3632.62,3955.50 3632.40,3953.83 3631.80,3952.62 3630.83,3951.85 3629.50,3951.54"/>
      </lanes>
   </edge>

   <edge id=":296637345_1" function="internal">
      <lanes>
         <lane id=":296637345_1_0" depart="0" maxspeed="27.78" length="7.36" shape="3632.62,3955.50 3632.84,3948.14"/>
      </lanes>
   </edge>

   <edge id=":296637345_2" function="internal">
      <lanes>
         <lane id=":296637345_2_0" depart="0" maxspeed="27.78" length="7.03" shape="3635.92,3955.43 3636.13,3948.41"/>
      </lanes>
   </edge>

   <edge id=":296637345_3" function="internal">
      <lanes>
         <lane id=":296637345_3_0" depart="0" maxspeed="27.78" length="0.10" shape="3635.92,3955.43 3636.67,3954.26"/>
      </lanes>
   </edge>

   <edge id=":296637345_11" function="internal">
      <lanes>
         <lane id=":296637345_11_0" depart="0" maxspeed="27.78" length="4.72" shape="3636.67,3954.26 3636.72,3954.18 3637.54,3953.75 3638.37,3954.14 3639.22,3955.36"/>
      </lanes>
   </edge>

   <edge id=":296637345_4" function="internal">
      <lanes>
         <lane id=":296637345_4_0" depart="0" maxspeed="25.00" length="5.07" shape="3645.65,3952.20 3644.25,3952.36 3643.27,3952.93 3642.69,3953.91 3642.52,3955.29"/>
      </lanes>
   </edge>

   <edge id=":296637345_5" function="internal">
      <lanes>
         <lane id=":296637345_5_0" depart="0" maxspeed="22.22" length="16.16" shape="3645.65,3952.20 3641.72,3952.08 3637.57,3951.93 3633.42,3951.75 3629.50,3951.54"/>
      </lanes>
   </edge>

   <edge id=":296637345_6" function="internal">
      <lanes>
         <lane id=":296637345_6_0" depart="0" maxspeed="25.00" length="3.04" shape="3645.65,3952.20 3644.41,3952.10"/>
      </lanes>
   </edge>

   <edge id=":296637345_12" function="internal">
      <lanes>
         <lane id=":296637345_12_0" depart="0" maxspeed="25.00" length="8.08" shape="3644.41,3952.10 3641.38,3951.87 3638.37,3951.13 3636.62,3949.98 3636.13,3948.41"/>
      </lanes>
   </edge>

   <edge id=":296637345_7" function="internal">
      <lanes>
         <lane id=":296637345_7_0" depart="0" maxspeed="27.78" length="6.36" shape="3642.71,3948.94 3642.52,3955.29"/>
      </lanes>
   </edge>

   <edge id=":296637345_8" function="internal">
      <lanes>
         <lane id=":296637345_8_0" depart="0" maxspeed="27.78" length="6.69" shape="3639.42,3948.67 3639.22,3955.36"/>
      </lanes>
   </edge>

   <edge id=":296637345_9" function="internal">
      <lanes>
         <lane id=":296637345_9_0" depart="0" maxspeed="25.00" length="4.52" shape="3639.42,3948.67 3638.70,3950.13 3634.49,3951.45"/>
      </lanes>
   </edge>

   <edge id=":296637345_13" function="internal">
      <lanes>
         <lane id=":296637345_13_0" depart="0" maxspeed="25.00" length="6.58" shape="3634.49,3951.45 3633.74,3951.57 3629.50,3951.54"/>
      </lanes>
   </edge>

   <edge id=":296637345_10" function="internal">
      <lanes>
         <lane id=":296637345_10_0" depart="0" maxspeed="27.78" length="0.10" shape="3639.42,3948.67 3638.56,3949.76"/>
      </lanes>
   </edge>

   <edge id=":296637345_14" function="internal">
      <lanes>
         <lane id=":296637345_14_0" depart="0" maxspeed="27.78" length="4.72" shape="3638.56,3949.76 3638.50,3949.84 3637.65,3950.19 3636.86,3949.71 3636.13,3948.41"/>
      </lanes>
   </edge>

   <edge id=":296637359_0" function="internal">
      <lanes>
         <lane id=":296637359_0_0" depart="0" maxspeed="20.83" length="5.33" shape="3658.09,3756.04 3658.21,3757.55 3658.75,3758.66 3659.69,3759.39 3661.03,3759.72"/>
      </lanes>
   </edge>

   <edge id=":296637359_1" function="internal">
      <lanes>
         <lane id=":296637359_1_0" depart="0" maxspeed="27.78" length="6.61" shape="3658.09,3756.04 3657.67,3762.63"/>
      </lanes>
   </edge>

   <edge id=":296637359_2" function="internal">
      <lanes>
         <lane id=":296637359_2_0" depart="0" maxspeed="27.78" length="6.49" shape="3654.79,3755.89 3654.38,3762.37"/>
      </lanes>
   </edge>

   <edge id=":296637359_3" function="internal">
      <lanes>
         <lane id=":296637359_3_0" depart="0" maxspeed="27.78" length="0.10" shape="3654.79,3755.89 3653.97,3757.01"/>
      </lanes>
   </edge>

   <edge id=":296637359_11" function="internal">
      <lanes>
         <lane id=":296637359_11_0" depart="0" maxspeed="27.78" length="4.72" shape="3653.97,3757.01 3653.91,3757.09 3653.07,3757.47 3652.26,3757.02 3651.49,3755.74"/>
      </lanes>
   </edge>

   <edge id=":296637359_4" function="internal">
      <lanes>
         <lane id=":296637359_4_0" depart="0" maxspeed="20.83" length="5.03" shape="3644.93,3758.54 3646.30,3758.42 3647.31,3757.89 3647.94,3756.95 3648.20,3755.60"/>
      </lanes>
   </edge>

   <edge id=":296637359_5" function="internal">
      <lanes>
         <lane id=":296637359_5_0" depart="0" maxspeed="13.89" length="16.15" shape="3644.93,3758.54 3648.85,3758.78 3652.98,3759.07 3657.12,3759.39 3661.03,3759.72"/>
      </lanes>
   </edge>

   <edge id=":296637359_6" function="internal">
      <lanes>
         <lane id=":296637359_6_0" depart="0" maxspeed="20.83" length="3.08" shape="3644.93,3758.54 3646.10,3758.66"/>
      </lanes>
   </edge>

   <edge id=":296637359_12" function="internal">
      <lanes>
         <lane id=":296637359_12_0" depart="0" maxspeed="20.83" length="7.89" shape="3646.10,3758.66 3649.16,3758.98 3652.15,3759.77 3653.89,3760.90 3654.38,3762.37"/>
      </lanes>
   </edge>

   <edge id=":296637359_7" function="internal">
      <lanes>
         <lane id=":296637359_7_0" depart="0" maxspeed="27.78" length="6.26" shape="3647.81,3761.84 3648.20,3755.60"/>
      </lanes>
   </edge>

   <edge id=":296637359_8" function="internal">
      <lanes>
         <lane id=":296637359_8_0" depart="0" maxspeed="27.78" length="6.37" shape="3651.10,3762.11 3651.49,3755.74"/>
      </lanes>
   </edge>

   <edge id=":296637359_9" function="internal">
      <lanes>
         <lane id=":296637359_9_0" depart="0" maxspeed="20.83" length="4.47" shape="3651.10,3762.11 3651.81,3760.74 3655.95,3759.64"/>
      </lanes>
   </edge>

   <edge id=":296637359_13" function="internal">
      <lanes>
         <lane id=":296637359_13_0" depart="0" maxspeed="20.83" length="6.50" shape="3655.95,3759.64 3656.78,3759.55 3661.03,3759.72"/>
      </lanes>
   </edge>

   <edge id=":296637359_10" function="internal">
      <lanes>
         <lane id=":296637359_10_0" depart="0" maxspeed="27.78" length="0.10" shape="3651.10,3762.11 3651.95,3761.02"/>
      </lanes>
   </edge>

   <edge id=":296637359_14" function="internal">
      <lanes>
         <lane id=":296637359_14_0" depart="0" maxspeed="27.78" length="4.72" shape="3651.95,3761.02 3652.02,3760.94 3652.87,3760.59 3653.66,3761.07 3654.38,3762.37"/>
      </lanes>
   </edge>

   <edge id=":296637421_0" function="internal">
      <lanes>
         <lane id=":296637421_0_0" depart="0" maxspeed="18.06" length="5.07" shape="3797.33,4298.32 3797.38,4299.72 3797.88,4300.74 3798.82,4301.38 3800.20,4301.63"/>
      </lanes>
   </edge>

   <edge id=":296637421_1" function="internal">
      <lanes>
         <lane id=":296637421_1_0" depart="0" maxspeed="18.06" length="6.32" shape="3797.33,4298.32 3796.91,4304.62"/>
      </lanes>
   </edge>

   <edge id=":296637421_2" function="internal">
      <lanes>
         <lane id=":296637421_2_0" depart="0" maxspeed="22.22" length="6.26" shape="3793.94,4301.34 3800.20,4301.63"/>
      </lanes>
   </edge>

   <edge id=":296637421_3" function="internal">
      <lanes>
         <lane id=":296637421_3_0" depart="0" maxspeed="22.22" length="5.02" shape="3793.94,4301.34 3795.27,4301.60 3796.21,4302.24 3796.76,4303.24 3796.91,4304.62"/>
      </lanes>
   </edge>

   <edge id=":296637430_0" function="internal">
      <lanes>
         <lane id=":296637430_0_0" depart="0" maxspeed="18.06" length="5.08" shape="3984.39,4309.37 3985.76,4309.23 3986.77,4308.68 3987.42,4307.73 3987.70,4306.36"/>
      </lanes>
   </edge>

   <edge id=":296637430_1" function="internal">
      <lanes>
         <lane id=":296637430_1_0" depart="0" maxspeed="22.22" length="6.26" shape="3984.39,4309.37 3990.64,4309.62"/>
      </lanes>
   </edge>

   <edge id=":296637430_2" function="internal">
      <lanes>
         <lane id=":296637430_2_0" depart="0" maxspeed="13.89" length="6.26" shape="3987.34,4312.61 3987.70,4306.36"/>
      </lanes>
   </edge>

   <edge id=":296637430_3" function="internal">
      <lanes>
         <lane id=":296637430_3_0" depart="0" maxspeed="18.06" length="5.06" shape="3987.34,4312.61 3987.61,4311.26 3988.25,4310.31 3989.26,4309.76 3990.64,4309.62"/>
      </lanes>
   </edge>

   <edge id=":296637438_0" function="internal">
      <lanes>
         <lane id=":296637438_0_0" depart="0" maxspeed="18.06" length="5.08" shape="4165.34,4312.80 4165.39,4314.21 4165.89,4315.23 4166.83,4315.87 4168.21,4316.12"/>
      </lanes>
   </edge>

   <edge id=":296637438_1" function="internal">
      <lanes>
         <lane id=":296637438_1_0" depart="0" maxspeed="13.89" length="6.34" shape="4165.34,4312.80 4164.94,4319.13"/>
      </lanes>
   </edge>

   <edge id=":296637438_2" function="internal">
      <lanes>
         <lane id=":296637438_2_0" depart="0" maxspeed="22.22" length="6.29" shape="4161.93,4315.89 4168.21,4316.12"/>
      </lanes>
   </edge>

   <edge id=":296637438_3" function="internal">
      <lanes>
         <lane id=":296637438_3_0" depart="0" maxspeed="18.06" length="5.02" shape="4161.93,4315.89 4163.27,4316.13 4164.22,4316.75 4164.77,4317.75 4164.94,4319.13"/>
      </lanes>
   </edge>

   <edge id=":296637447_0" function="internal">
      <lanes>
         <lane id=":296637447_0_0" depart="0" maxspeed="22.22" length="6.19" shape="4356.34,4322.89 4362.53,4323.08"/>
      </lanes>
   </edge>

   <edge id=":296637447_1" function="internal">
      <lanes>
         <lane id=":296637447_1_0" depart="0" maxspeed="18.06" length="5.05" shape="4359.27,4326.15 4359.56,4324.78 4360.20,4323.81 4361.19,4323.24 4362.53,4323.08"/>
      </lanes>
   </edge>

   <edge id=":296637521_0" function="internal">
      <lanes>
         <lane id=":296637521_0_0" depart="0" maxspeed="13.89" length="6.27" shape="4343.17,4594.59 4336.91,4594.28"/>
      </lanes>
   </edge>

   <edge id=":296637521_1" function="internal">
      <lanes>
         <lane id=":296637521_1_0" depart="0" maxspeed="13.89" length="5.05" shape="4343.17,4594.59 4341.80,4594.35 4340.85,4593.73 4340.33,4592.73 4340.23,4591.33"/>
      </lanes>
   </edge>

   <edge id=":296637521_2" function="internal">
      <lanes>
         <lane id=":296637521_2_0" depart="0" maxspeed="13.89" length="5.06" shape="4339.91,4597.60 4339.76,4596.23 4339.20,4595.22 4338.25,4594.57 4336.91,4594.28"/>
      </lanes>
   </edge>

   <edge id=":296637521_3" function="internal">
      <lanes>
         <lane id=":296637521_3_0" depart="0" maxspeed="13.89" length="6.27" shape="4339.91,4597.60 4340.23,4591.33"/>
      </lanes>
   </edge>

   <edge id=":296637528_0" function="internal">
      <lanes>
         <lane id=":296637528_0_0" depart="0" maxspeed="13.89" length="5.05" shape="4163.12,4581.73 4161.74,4581.82 4160.74,4582.35 4160.10,4583.29 4159.82,4584.66"/>
      </lanes>
   </edge>

   <edge id=":296637528_1" function="internal">
      <lanes>
         <lane id=":296637528_1_0" depart="0" maxspeed="13.89" length="6.29" shape="4163.12,4581.73 4156.83,4581.45"/>
      </lanes>
   </edge>

   <edge id=":296637528_2" function="internal">
      <lanes>
         <lane id=":296637528_2_0" depart="0" maxspeed="13.89" length="6.26" shape="4160.06,4578.41 4159.82,4584.66"/>
      </lanes>
   </edge>

   <edge id=":296637528_3" function="internal">
      <lanes>
         <lane id=":296637528_3_0" depart="0" maxspeed="13.89" length="5.05" shape="4160.06,4578.41 4159.83,4579.76 4159.22,4580.71 4158.22,4581.28 4156.83,4581.45"/>
      </lanes>
   </edge>

   <edge id=":296637539_0" function="internal">
      <lanes>
         <lane id=":296637539_0_0" depart="0" maxspeed="13.89" length="6.32" shape="3977.15,4578.55 3970.83,4578.41"/>
      </lanes>
   </edge>

   <edge id=":296637539_1" function="internal">
      <lanes>
         <lane id=":296637539_1_0" depart="0" maxspeed="13.89" length="5.04" shape="3977.15,4578.55 3975.78,4578.33 3974.83,4577.73 3974.29,4576.73 3974.16,4575.35"/>
      </lanes>
   </edge>

   <edge id=":296637539_2" function="internal">
      <lanes>
         <lane id=":296637539_2_0" depart="0" maxspeed="13.89" length="5.05" shape="3973.78,4581.66 3973.68,4580.27 3973.15,4579.27 3972.20,4578.65 3970.83,4578.41"/>
      </lanes>
   </edge>

   <edge id=":296637539_3" function="internal">
      <lanes>
         <lane id=":296637539_3_0" depart="0" maxspeed="13.89" length="6.32" shape="3973.78,4581.66 3974.16,4575.35"/>
      </lanes>
   </edge>

   <edge id=":296637549_0" function="internal">
      <lanes>
         <lane id=":296637549_0_0" depart="0" maxspeed="18.06" length="5.08" shape="3792.10,4573.58 3790.73,4573.74 3789.72,4574.30 3789.06,4575.25 3788.77,4576.60"/>
      </lanes>
   </edge>

   <edge id=":296637549_1" function="internal">
      <lanes>
         <lane id=":296637549_1_0" depart="0" maxspeed="13.89" length="6.26" shape="3792.10,4573.58 3785.85,4573.29"/>
      </lanes>
   </edge>

   <edge id=":296637549_2" function="internal">
      <lanes>
         <lane id=":296637549_2_0" depart="0" maxspeed="22.22" length="6.27" shape="3789.09,4570.34 3788.77,4576.60"/>
      </lanes>
   </edge>

   <edge id=":296637549_3" function="internal">
      <lanes>
         <lane id=":296637549_3_0" depart="0" maxspeed="18.06" length="5.05" shape="3789.09,4570.34 3788.86,4571.71 3788.23,4572.66 3787.23,4573.19 3785.85,4573.29"/>
      </lanes>
   </edge>

   <edge id=":296637610_0" function="internal">
      <lanes>
         <lane id=":296637610_0_0" depart="0" maxspeed="13.89" length="5.07" shape="3841.64,3772.83 3841.77,3774.23 3842.30,3775.26 3843.23,3775.92 3844.56,3776.22"/>
      </lanes>
   </edge>

   <edge id=":296637610_1" function="internal">
      <lanes>
         <lane id=":296637610_1_0" depart="0" maxspeed="13.89" length="6.27" shape="3841.64,3772.83 3841.23,3779.09"/>
      </lanes>
   </edge>

   <edge id=":296637610_2" function="internal">
      <lanes>
         <lane id=":296637610_2_0" depart="0" maxspeed="13.89" length="6.24" shape="3838.34,3775.72 3844.56,3776.22"/>
      </lanes>
   </edge>

   <edge id=":296637610_3" function="internal">
      <lanes>
         <lane id=":296637610_3_0" depart="0" maxspeed="13.89" length="5.06" shape="3838.34,3775.72 3839.71,3776.03 3840.64,3776.70 3841.15,3777.72 3841.23,3779.09"/>
      </lanes>
   </edge>

   <edge id=":296637617_0" function="internal">
      <lanes>
         <lane id=":296637617_0_0" depart="0" maxspeed="18.06" length="5.04" shape="3828.64,3956.77 3827.25,3956.85 3826.24,3957.35 3825.60,3958.29 3825.33,3959.65"/>
      </lanes>
   </edge>

   <edge id=":296637617_1" function="internal">
      <lanes>