<additional>
   <tl-logic id="303275184" type="static" programID="1" offset="0">
       <phase duration="17" state="rrGGgg"/>
       <phase duration="5" state="rryygg"/>
       <phase duration="40" state="rrrrGG"/>
       <phase duration="39" state="rrrryy"/>
       <phase duration="40" state="GGrrrr"/>
       <phase duration="27" state="yyrrrr"/>
   </tl-logic>
   <tl-logic id="303275664" type="static" programID="1" offset="0">
       <phase duration="34" state="GGGgrrrGGgg"/>
       <phase duration="40" state="yyygrrryygg"/>
       <phase duration="40" state="rrrGrrrrrGG"/>
       <phase duration="40" state="rrryrrrrryy"/>
       <phase duration="9" state="rrrrGGGrrrr"/>
       <phase duration="40" state="rrrryyyrrrr"/>
   </tl-logic>
   <tl-logic id="303275666" type="static" programID="1" offset="0">
       <phase duration="40" state="GGgrrrGgg"/>
       <phase duration="40" state="yygrrrygg"/>
       <phase duration="5" state="rrGrrrrGG"/>
       <phase duration="25" state="rryrrrryy"/>
       <phase duration="5" state="rrrGGGrrr"/>
       <phase duration="5" state="rrryyyrrr"/>
   </tl-logic>
   <tl-logic id="303275667" type="static" programID="1" offset="0">
       <phase duration="40" state="GGr"/>
       <phase duration="40" state="yyr"/>
       <phase duration="8" state="rrG"/>
       <phase duration="25" state="rry"/>
   </tl-logic>
   <tl-logic id="303275904" type="static" programID="1" offset="0">
       <phase duration="5" state="GGrr"/>
       <phase duration="5" state="yyrr"/>
       <phase duration="7" state="rrGG"/>
       <phase duration="6" state="rryy"/>
   </tl-logic>
   <tl-logic id="303275910" type="static" programID="1" offset="0">
       <phase duration="8" state="GGrr"/>
       <phase duration="40" state="yyrr"/>
       <phase duration="40" state="rrGG"/>
       <phase duration="11" state="rryy"/>
   </tl-logic>
   <tl-logic id="303276132" type="static" programID="1" offset="0">
       <phase duration="40" state="GGGrrggrr"/>
       <phase duration="5" state="yyyrrggrr"/>
       <phase duration="5" state="rrrrrGGrr"/>
       <phase duration="36" state="rrrrryyrr"/>
       <phase duration="5" state="rrrGGrrgg"/>
       <phase duration="34" state="rrryyrrgg"/>
       <phase duration="40" state="rrrrrrrGG"/>
       <phase duration="33" state="rrrrrrryy"/>
   </tl-logic>
   <tl-logic id="303278164" type="static" programID="1" offset="0">
       <phase duration="40" state="GGgGggrrr"/>
       <phase duration="6" state="yygyggrrr"/>
       <phase duration="5" state="rrGrGGrrr"/>
       <phase duration="40" state="rryryyrrr"/>
       <phase duration="30" state="GrrrrrGGg"/>
       <phase duration="5" state="yrrrrryyy"/>
   </tl-logic>
   <tl-logic id="303278277" type="static" programID="1" offset="0">
       <phase duration="7" state="GGrrr"/>
       <phase duration="5" state="yyrrr"/>
       <phase duration="35" state="rrGGG"/>
       <phase duration="5" state="rryyy"/>
   </tl-logic>
   <tl-logic id="303278502" type="static" programID="1" offset="0">
       <phase duration="5" state="GGGG"/>
       <phase duration="37" state="yyyy"/>
   </tl-logic>
   <tl-logic id="331525908" type="static" programID="1" offset="0">
       <phase duration="24" state="GgGrr"/>
       <phase duration="40" state="yyyrr"/>
       <phase duration="40" state="rrGGG"/>
       <phase duration="7" state="rryyy"/>
   </tl-logic>
   <tl-logic id="331525911" type="static" programID="1" offset="0">
       <phase duration="21" state="GggrrrGGg"/>
       <phase duration="40" state="yggrrryyg"/>
       <phase duration="40" state="rGGrrrrrG"/>
       <phase duration="5" state="ryyrrrrry"/>
       <phase duration="5" state="rrrGGgGrr"/>
       <phase duration="40" state="rrryyyyrr"/>
   </tl-logic>
   <tl-logic id="331526231" type="static" programID="1" offset="0">
       <phase duration="40" state="GGGrr"/>
       <phase duration="6" state="yyyrr"/>
       <phase duration="40" state="GrrGg"/>
       <phase duration="14" state="yrryy"/>
   </tl-logic>
   <tl-logic id="331526235" type="static" programID="1" offset="0">
       <phase duration="27" state="GGrr"/>
       <phase duration="40" state="yyrr"/>
       <phase duration="5" state="rrGG"/>
       <phase duration="40" state="rryy"/>
   </tl-logic>
   <tl-logic id="418234858" type="static" programID="1" offset="0">
       <phase duration="36" state="GgGrr"/>
       <phase duration="40" state="yyyrr"/>
       <phase duration="23" state="rrGGG"/>
       <phase duration="40" state="rryyy"/>
   </tl-logic>
   <tl-logic id="418376981" type="static" programID="1" offset="0">
       <phase duration="40" state="GGgrrrGgg"/>
       <phase duration="5" state="yygrrrygg"/>
       <phase duration="38" state="rrGrrrrGG"/>
       <phase duration="5" state="rryrrrryy"/>
       <phase duration="36" state="rrrGGGrrr"/>
       <phase duration="40" state="rrryyyrrr"/>
   </tl-logic>
   <tl-logic id="419625737" type="static" programID="1" offset="0">
       <phase duration="40" state="GGGGrrrr"/>
       <phase duration="40" state="yyyyrrrr"/>
       <phase duration="5" state="rrrrGGGG"/>
       <phase duration="40" state="rrrryyyy"/>
   </tl-logic>
   <tl-logic id="419630409" type="static" programID="1" offset="0">
       <phase duration="5" state="GGrr"/>
       <phase duration="40" state="yyrr"/>
       <phase duration="40" state="rrGG"/>
       <phase duration="40" state="rryy"/>
   </tl-logic>
   <tl-logic id="419632850" type="static" programID="1" offset="0">
       <phase duration="5" state="GGrr"/>
       <phase duration="5" state="yyrr"/>
       <phase duration="30" state="rrGG"/>
       <phase duration="5" state="rryy"/>
   </tl-logic>
   <tl-logic id="419640934" type="static" programID="1" offset="0">
       <phase duration="16" state="GG"/>
       <phase duration="40" state="yy"/>
   </tl-logic>
   <tl-logic id="419640940" type="static" programID="1" offset="0">
       <phase duration="40" state="GGGG"/>
       <phase duration="40" state="yyyy"/>
   </tl-logic>
   <tl-logic id="419640944" type="static" programID="1" offset="0">
       <phase duration="40" state="GGrr"/>
       <phase duration="40" state="yyrr"/>
       <phase duration="19" state="rrGG"/>
       <phase duration="5" state="rryy"/>
   </tl-logic>
   <tl-logic id="419640946" type="static" programID="1" offset="0">
       <phase duration="39" state="GGGG"/>
       <phase duration="39" state="yyyy"/>
   </tl-logic>
   <tl-logic id="419641100" type="static" programID="1" offset="0">
       <phase duration="5" state="GGrr"/>
       <phase duration="5" state="yyrr"/>
       <phase duration="40" state="rrGG"/>
       <phase duration="40" state="rryy"/>
   </tl-logic>
   <tl-logic id="419641199" type="static" programID="1" offset="0">
       <phase duration="5" state="GGrr"/>
       <phase duration="7" state="yyrr"/>
       <phase duration="28" state="rrGG"/>
       <phase duration="5" state="rryy"/>
   </tl-logic>
   <tl-logic id="419641406" type="static" programID="1" offset="0">
       <phase duration="15" state="GGgGrrr"/>
       <phase duration="40" state="yyyyrrr"/>
       <phase duration="40" state="rrrGGGG"/>
       <phase duration="12" state="rrryyyy"/>
   </tl-logic>
   <tl-logic id="419641424" type="static" programID="1" offset="0">
       <phase duration="34" state="GGGGrrr"/>
       <phase duration="40" state="yyyyrrr"/>
       <phase duration="40" state="GrrrGGg"/>
       <phase duration="5" state="yrrryyy"/>
   </tl-logic>
   <tl-logic id="419646058" type="static" programID="1" offset="0">
       <phase duration="5" state="GGGrrr"/>
       <phase duration="5" state="yyyrrr"/>
       <phase duration="5" state="GrrGGg"/>
       <phase duration="40" state="yrryyy"/>
   </tl-logic>
   <tl-logic id="419646059" type="static" programID="1" offset="0">
       <phase duration="40" state="rrrGggGGg"/>
       <phase duration="40" state="rrryggyyg"/>
       <phase duration="40" state="rrrrGGrrG"/>
       <phase duration="5" state="rrrryyrry"/>
       <phase duration="21" state="GGGrrrrrr"/>
       <phase duration="5" state="yyyrrrrrr"/>
   </tl-logic>
   <tl-logic id="419646084" type="static" programID="1" offset="0">
       <phase duration="40" state="Grg"/>
       <phase duration="5" state="yrg"/>
       <phase duration="40" state="rrG"/>
       <phase duration="5" state="rry"/>
       <phase duration="40" state="Ggr"/>
       <phase duration="40" state="yyr"/>
   </tl-logic>
   <tl-logic id="419646198" type="static" programID="1" offset="0">
       <phase duration="5" state="GGGGrrrggg"/>
       <phase duration="40" state="yyyyrrrggg"/>
       <phase duration="36" state="rrrrrrrGGG"/>
       <phase duration="39" state="rrrrrrryyy"/>
       <phase duration="5" state="rrrrGGGrrr"/>
       <phase duration="38" state="rrrryyyrrr"/>
   </tl-logic>
   <tl-logic id="419652679" type="static" programID="1" offset="0">
       <phase duration="40" state="GGG"/>
       <phase duration="5" state="yyy"/>
   </tl-logic>
   <tl-logic id="419652684" type="static" programID="1" offset="0">
       <phase duration="5" state="GGgrrrGgg"/>
       <phase duration="5" state="yygrrrygg"/>
       <phase duration="40" state="rrGrrrrGG"/>
       <phase duration="5" state="rryrrrryy"/>
       <phase duration="5" state="rrrGGGrrr"/>
       <phase duration="40" state="rrryyyrrr"/>
   </tl-logic>
   <tl-logic id="419652689" type="static" programID="1" offset="0">
       <phase duration="5" state="GGgrrrGgg"/>
       <phase duration="40" state="yygrrrygg"/>
       <phase duration="31" state="rrGrrrrGG"/>
       <phase duration="40" state="rryrrrryy"/>
       <phase duration="6" state="rrrGGGrrr"/>
       <phase duration="40" state="rrryyyrrr"/>
   </tl-logic>
   <tl-logic id="419656024" type="static" programID="1" offset="0">
       <phase duration="32" state="rrrGggGGg"/>
       <phase duration="40" state="rrryggyyg"/>
       <phase duration="37" state="rrrrGGrrG"/>
       <phase duration="33" state="rrrryyrry"/>
       <phase duration="40" state="GGGrrrrrr"/>
       <phase duration="5" state="yyyrrrrrr"/>
   </tl-logic>
   <tl-logic id="419656030" type="static" programID="1" offset="0">
       <phase duration="40" state="GGgrrrGgg"/>
       <phase duration="5" state="yygrrrygg"/>
       <phase duration="31" state="rrGrrrrGG"/>
       <phase duration="8" state="rryrrrryy"/>
       <phase duration="40" state="rrrGGGrrr"/>
       <phase duration="40" state="rrryyyrrr"/>
   </tl-logic>
   <tl-logic id="419656038" type="static" programID="1" offset="0">
       <phase duration="5" state="rrrGggGGg"/>
       <phase duration="21" state="rrryggyyg"/>
       <phase duration="40" state="rrrrGGrrG"/>
       <phase duration="40" state="rrrryyrry"/>
       <phase duration="14" state="GGGrrrrrr"/>
       <phase duration="40" state="yyyrrrrrr"/>
   </tl-logic>
   <tl-logic id="419656049" type="static" programID="1" offset="0">
       <phase duration="31" state="GGGrr"/>
       <phase duration="40" state="yyyrr"/>
       <phase duration="6" state="GrrGg"/>
       <phase duration="5" state="yrryy"/>
   </tl-logic>
   <tl-logic id="419656062" type="static" programID="1" offset="0">
       <phase duration="40" state="GGggrrrrGGggrrrr"/>
       <phase duration="12" state="yyggrrrryyggrrrr"/>
       <phase duration="5" state="rrGGrrrrrrGGrrrr"/>
       <phase duration="34" state="rryyrrrrrryyrrrr"/>
       <phase duration="5" state="rrrrGGggrrrrGGgg"/>
       <phase duration="37" state="rrrryyggrrrryygg"/>
       <phase duration="20" state="rrrrrrGGrrrrrrGG"/>
       <phase duration="39" state="rrrrrryyrrrrrryy"/>
   </tl-logic>
   <tl-logic id="419656076" type="static" programID="1" offset="0">
       <phase duration="5" state="GGggrrrrGGggrrrr"/>
       <phase duration="5" state="yyggrrrryyggrrrr"/>
       <phase duration="22" state="rrGGrrrrrrGGrrrr"/>
       <phase duration="40" state="rryyrrrrrryyrrrr"/>
       <phase duration="5" state="rrrrGGggrrrrGGgg"/>
       <phase duration="5" state="rrrryyggrrrryygg"/>
       <phase duration="40" state="rrrrrrGGrrrrrrGG"/>
       <phase duration="40" state="rrrrrryyrrrrrryy"/>
   </tl-logic>
   <tl-logic id="419659496" type="static" programID="1" offset="0">
       <phase duration="25" state="rrrGggGGg"/>
       <phase duration="35" state="rrryggyyg"/>
       <phase duration="40" state="rrrrGGrrG"/>
       <phase duration="5" state="rrrryyrry"/>
       <phase duration="5" state="GGGrrrrrr"/>
       <phase duration="40" state="yyyrrrrrr"/>
   </tl-logic>
   <tl-logic id="419659665" type="static" programID="1" offset="0">
       <phase duration="28" state="GGgrrGGg"/>
       <phase duration="35" state="yyyrryyy"/>
       <phase duration="5" state="rrrGGrrr"/>
       <phase duration="5" state="rrryyrrr"/>
   </tl-logic>
   <tl-logic id="419660087" type="static" programID="1" offset="0">
       <phase duration="33" state="GGGG"/>
       <phase duration="5" state="yyyy"/>
   </tl-logic>
   <tl-logic id="419674915" type="static" programID="1" offset="0">
       <phase duration="5" state="GGGrr"/>
       <phase duration="5" state="yyyrr"/>
       <phase duration="40" state="GrrGg"/>
       <phase duration="24" state="yrryy"/>
   </tl-logic>
   <tl-logic id="419677113" type="static" programID="1" offset="0">
       <phase duration="40" state="GGGG"/>
       <phase duration="11" state="yyyy"/>
   </tl-logic>
   <tl-logic id="419677116" type="static" programID="1" offset="0">
       <phase duration="5" state="GGGrr"/>
       <phase duration="5" state="yyyrr"/>
       <phase duration="40" state="rrrGG"/>
       <phase duration="40" state="rrryy"/>
   </tl-logic>
   <tl-logic id="419677118" type="static" programID="1" offset="0">
       <phase duration="40" state="GGrr"/>
       <phase duration="40" state="yyrr"/>
       <phase duration="31" state="rrGG"/>
       <phase duration="5" state="rryy"/>
   </tl-logic>
   <tl-logic id="419680391" type="static" programID="1" offset="0">
       <phase duration="39" state="GGGrrr"/>
       <phase duration="5" state="yyyrrr"/>
       <phase duration="40" state="rrrGGG"/>
       <phase duration="27" state="rrryyy"/>
   </tl-logic>
   <tl-logic id="419680393" type="static" programID="1" offset="0">
       <phase duration="5" state="GGGrrr"/>
       <phase duration="6" state="yyyrrr"/>
       <phase duration="40" state="GGrGGg"/>
       <phase duration="39" state="yyryyy"/>
   </tl-logic>
   <tl-logic id="549226071" type="static" programID="1" offset="0">
       <phase duration="40" state="GGGGrrr"/>
       <phase duration="5" state="yyyyrrr"/>
       <phase duration="5" state="GGrrGGg"/>
       <phase duration="5" state="yyrryyy"/>
   </tl-logic>
   <tl-logic id="549226082" type="static" programID="1" offset="0">
       <phase duration="32" state="GgGrr"/>
       <phase duration="5" state="yyyrr"/>
       <phase duration="5" state="rrGGG"/>
       <phase duration="40" state="rryyy"/>
   </tl-logic>
   <tl-logic id="577406877" type="static" programID="1" offset="0">
       <phase duration="19" state="rrrrGggGGg"/>
       <phase duration="5" state="rrrryggyyg"/>
       <phase duration="40" state="rrrrrGGrrG"/>
       <phase duration="5" state="rrrrryyrry"/>
       <phase duration="40" state="GGGGrrrrrr"/>
       <phase duration="34" state="yyyyrrrrrr"/>
   </tl-logic>
   <tl-logic id="765632521" type="static" programID="1" offset="0">
       <phase duration="40" state="GGGrrr"/>
       <phase duration="5" state="yyyrrr"/>
       <phase duration="40" state="GGrGGg"/>
       <phase duration="5" state="yyryyy"/>
   </tl-logic>
   <tl-logic id="766079758" type="static" programID="1" offset="0">
       <phase duration="40" state="GGGrr"/>
       <phase duration="5" state="yyyrr"/>
       <phase duration="39" state="GrrGg"/>
       <phase duration="5" state="yrryy"/>
   </tl-logic>
   <tl-logic id="766791450" type="static" programID="1" offset="0">
       <phase duration="5" state="gGgrrrGGg"/>
       <phase duration="5" state="gygrrryyg"/>
       <phase duration="26" state="GrGrrrrrG"/>
       <phase duration="40" state="yryrrrrry"/>
       <phase duration="40" state="rrrGGgrGr"/>
       <phase duration="40" state="rrryyyryr"/>
   </tl-logic>
</additional>
