<?xml version="1.0"?>

<!-- generated on 06/09/10 19:01:08 by SUMO duarouter Version 0.11.1
<configuration>

    <input>
        <net-file value="D:\SW\mapas\tl2\bahia-rivadavia\40\rivadavia.net.xml"/>
    </input>

    <output>
        <output-file value=".\..\examples\vehicleroutes\rivadavia.rou.xml"/>
    </output>

    <processing>
        <random-per-second value="380"/>
    </processing>

    <time>
        <begin value="0"/>
        <end value="10"/>
    </time>

    <random_number>
        <abs-rand value="true"/>
    </random_number>

</configuration>
-->

<routes>
   <vehicle id="Rand0" depart="0">
      <route edges="27082624#3 27083324#2 27083324#3"/>
   </vehicle>
   <vehicle id="Rand10" depart="0">
      <route edges="27077992#0 27077992#1 27077992#2 27077992#3 28813885#2 28813885#3 28813885#4 28813885#5 27052071#0 27052069#1 27154183#3"/>
   </vehicle>
   <vehicle id="Rand100" depart="0">
      <route edges="27082625#2 27082624#1 27082624#2 27053790#3 27053790#4 27078417#0 28813885#3 28813885#4 28813885#5 27053106#4 -28629700#3 -28629700#2 28629700#2"/>
   </vehicle>
   <vehicle id="Rand101" depart="0">
      <route edges="27056034#1 27056034#2 27056034#3 27082629#0 27082629#1 27083324#1 27083324#2 27053786#2 27053786#3"/>
   </vehicle>
   <vehicle id="Rand102" depart="0">
      <route edges="27082629#5 27082625#0 27082625#1 27082625#2 27082624#1 27082624#2 27082624#3 27082624#4 27082624#5 27056035#0 27056035#1 27056035#2"/>
   </vehicle>
   <vehicle id="Rand105" depart="0">
      <route edges="-27494703#0 27494703#0 27056034#3 27082629#0 27082629#1 27082629#2 27082629#3 27082629#4 27082629#5 27082625#0 27082625#1 27486761"/>
   </vehicle>
   <vehicle id="Rand106" depart="0">
      <route edges="28813885#4 28813885#5 27053106#4 -28629700#3"/>
   </vehicle>
   <vehicle id="Rand108" depart="0">
      <route edges="27083337#2 27083337#3 27056034#2 27056034#3 27082629#0 27082629#1 27082629#2 27053790#4 27078417#0 28813885#3"/>
   </vehicle>
   <vehicle id="Rand109" depart="0">
      <route edges="28629700#2 28629700#3 27122600#0 27082629#0 27082629#1 27082629#2 27053790#4"/>
   </vehicle>
   <vehicle id="Rand110" depart="0">
      <route edges="27639462#2 28629700#1 28629700#2 28629700#3 27122600#0 27122600#1 27056035#0 27056035#1"/>
   </vehicle>
   <vehicle id="Rand111" depart="0">
      <route edges="28408742#1 27053790#1 27053790#2 27053790#3 27053790#4 27078417#0 28813885#3 28813885#4 28813885#5 27053106#4 -28629700#3 27052069#0"/>
   </vehicle>
   <vehicle id="Rand112" depart="0">
      <route edges="27154183#3 27053106#3 27053106#4 27122600#0 27082629#0 27082629#1 27083324#1 27083324#2 27083324#3 28408742#3 27052067#1"/>
   </vehicle>
   <vehicle id="Rand113" depart="0">
      <route edges="27078417#2 27082616#3 27082616#4 27082616#5 27055797#0 27055797#1 27639462#0 27639462#1"/>
   </vehicle>
   <vehicle id="Rand114" depart="0">
      <route edges="27053170#0 28813885#5 27052071#0"/>
   </vehicle>
   <vehicle id="Rand116" depart="0">
      <route edges="27077992#3 27077992#4 27082604#3 27082604#4 27082604#5"/>
   </vehicle>
   <vehicle id="Rand117" depart="0">
      <route edges="27083337#3 27083337#4 -28629700#1 27056027#0 27056027#1 27056027#2 27056036#1"/>
   </vehicle>
   <vehicle id="Rand118" depart="0">
      <route edges="27082616#3 27053782#2 27053782#3 27053782#4 27083324#0 27083324#1 27083324#2 27083324#3 28408742#3 27052067#1"/>
   </vehicle>
   <vehicle id="Rand119" depart="0">
      <route edges="27082604#3 -27082628#0 27082629#5 27082625#0 27082625#1 27082625#2 27082624#1 27053791#3 27053791#4 28408742#1"/>
   </vehicle>
   <vehicle id="Rand12" depart="0">
      <route edges="28813885#0 28813885#1 28813885#2 27078417#1 27078417#2 27082616#3 27082616#4"/>
   </vehicle>
   <vehicle id="Rand120" depart="0">
      <route edges="27082616#0 27082628#4 27082617#5"/>
   </vehicle>
   <vehicle id="Rand121" depart="0">
      <route edges="27078417#0 28813885#3 28813885#4 28813885#5 27053106#4 -28629700#3 -28629700#2 28629700#2"/>
   </vehicle>
   <vehicle id="Rand122" depart="0">
      <route edges="27077992#0 27077992#1 27077992#2 27077992#3 28813885#2 28813885#3 28813885#4 28813885#5 27052071#0 27052069#1 27154183#3"/>
   </vehicle>
   <vehicle id="Rand123" depart="0">
      <route edges="27083324#1 27082624#4 27082624#5 27056035#0 27056035#1 27083337#2 27083337#3 27083337#4 -28629700#1 27056027#0 27056034#1"/>
   </vehicle>
   <vehicle id="Rand124" depart="0">
      <route edges="27078417#2 27082616#3 27053782#2 27053782#3 28813885#4"/>
   </vehicle>
   <vehicle id="Rand125" depart="0">
      <route edges="27053782#0 27053782#1 27082616#4 27082616#5"/>
   </vehicle>
   <vehicle id="Rand126" depart="0">
      <route edges="27082628#5 -27082628#5 -27082628#4 -27082628#3 -27082628#2 -27082628#1 27082604#4"/>
   </vehicle>
   <vehicle id="Rand127" depart="0">
      <route edges="27154183#1"/>
   </vehicle>
   <vehicle id="Rand128" depart="0">
      <route edges="-27639510 27639510 27083337#3 27056034#2 27056034#3"/>
   </vehicle>
   <vehicle id="Rand129" depart="0">
      <route edges="27053786#1 27053786#2 27053790#2 27053790#3 27053790#4 27078417#0 28813885#3 28813885#4 28813885#5 27052071#0 27052071#1 27053171#1 27154183#2"/>
   </vehicle>
   <vehicle id="Rand13" depart="0">
      <route edges="27053106#3 27053106#4 27122600#0 27082629#0 27082629#1 27082629#2 27082629#3 27082629#4 27082628#0 27082628#1"/>
   </vehicle>
   <vehicle id="Rand130" depart="0">
      <route edges="27053791#2 27082624#2 27053790#3 27053790#4 27078417#0 28813885#3 28813885#4 28813885#5 27052071#0 27052071#1 27052071#2 27052071#3"/>
   </vehicle>
   <vehicle id="Rand131" depart="0">
      <route edges="27082628#0 -27082628#0 27082629#5 27082625#0 27082625#1 27082625#2 27082624#1 27082624#2 27082624#3 27083324#2 27083324#3"/>
   </vehicle>
   <vehicle id="Rand132" depart="0">
      <route edges="27053786#2 27053790#2 27082624#3 27082624#4 27052067#3"/>
   </vehicle>
   <vehicle id="Rand133" depart="0">
      <route edges="27052069#1 27154183#3 27053106#3 27053106#4 27122600#0 27082629#0 27052067#4 27082604#0"/>
   </vehicle>
   <vehicle id="Rand134" depart="0">
      <route edges="27082604#1 27078417#0 28813885#3 28813885#4 27053170#1"/>
   </vehicle>
   <vehicle id="Rand135" depart="0">
      <route edges="27082616#0 -27082628#3 -27082628#2 28813885#1 28813885#2 28813885#3 28813885#4 28813885#5 27052071#0 27052071#1 27053171#1 27053171#2 27055797#1 27639462#0 27154183#1"/>
   </vehicle>
   <vehicle id="Rand136" depart="0">
      <route edges="27053786#1 27083324#3 28408742#3 27052067#1 27052067#2 27082624#5 27056035#0 27056035#1 27083337#2 27083337#3 27056034#2"/>
   </vehicle>
   <vehicle id="Rand138" depart="0">
      <route edges="28813885#1 28813885#2 28813885#3 28813885#4 28813885#5 27052071#0 27052071#1 27053171#1 27053171#2"/>
   </vehicle>
   <vehicle id="Rand139" depart="0">
      <route edges="27082629#3 27082629#4 27082628#0 27082628#1 28813885#1 28813885#2 28813885#3 28813885#4 28813885#5 27052071#0 27052071#1 27053171#1 27053171#2 27055797#1 27639462#0"/>
   </vehicle>
   <vehicle id="Rand14" depart="0">
      <route edges="27053790#1 27053790#2 27053790#3 27082629#3 27082629#4 27082629#5 27082629#6 27082629#7"/>
   </vehicle>
   <vehicle id="Rand141" depart="0">
      <route edges="27078417#0 27078417#1 27082600#3 27082600#4 -27082628#2 27082628#2"/>
   </vehicle>
   <vehicle id="Rand143" depart="0">
      <route edges="27053790#2 27082624#3 27082624#4 27082624#5"/>
   </vehicle>
   <vehicle id="Rand144" depart="0">
      <route edges="27082600#2 27082600#3 27077992#3 27077992#4 27053791#0 27053791#1 27053791#2 27053791#3 27053791#4 28408742#1 27053790#1"/>
   </vehicle>
   <vehicle id="Rand145" depart="0">
      <route edges="27082628#1 27082628#2 27082628#3 27082628#4 27082628#5 -27082628#5"/>
   </vehicle>
   <vehicle id="Rand147" depart="0">
      <route edges="27082629#3 27053791#1 27053791#2 27082624#2 27053790#3 27053790#4 27078417#0"/>
   </vehicle>
   <vehicle id="Rand148" depart="0">
      <route edges="27078417#3 27082617#3 27077992#1 27077992#2 27077992#3 28813885#2 28813885#3 28813885#4 28813885#5 27053106#4 27122600#0 27082629#0"/>
   </vehicle>
   <vehicle id="Rand15" depart="0">
      <route edges="27082628#4 -27082628#4 -27082628#3 -27082628#2 28813885#1 28813885#2 28813885#3 27053782#4 27083324#0 27082629#2 27053790#4"/>
   </vehicle>
   <vehicle id="Rand151" depart="0">
      <route edges="27052071#0 27052069#1 27154183#3 27053106#3 27053106#4 27122600#0 27122600#1 27122600#2 27122600#3 27122600#4"/>
   </vehicle>
   <vehicle id="Rand153" depart="0">
      <route edges="27053171#0 27053171#1 27154183#2 27154183#3 27082600#0 27053170#2 27053170#3 27082617#1 27082617#2"/>
   </vehicle>
   <vehicle id="Rand154" depart="0">
      <route edges="27078417#3 27082617#3 27082617#4 -27082628#4 -27082628#3 -27082628#2 -27082628#1 -27082628#0 27082629#5 27082625#0 27082625#1 27082625#2 27082624#1 27053791#3 27053791#4 28408742#1 28408742#2"/>
   </vehicle>
   <vehicle id="Rand155" depart="0">
      <route edges="27082600#2 27078417#2 27082616#3 27082616#4 27082616#5 27055797#0 27055797#1 27639462#0"/>
   </vehicle>
   <vehicle id="Rand156" depart="0">
      <route edges="27082629#4 27082628#0 27082628#1 28813885#1 28813885#2 28813885#3 28813885#4 28813885#5 27052071#0 27052071#1 27053171#1 27154183#2"/>
   </vehicle>
   <vehicle id="Rand157" depart="0">
      <route edges="-28629700#0 28629700#0 28629700#1 28629700#2 28629700#3 27122600#0 27082629#0 27082629#1 27083324#1 27083324#2 27083324#3 28408742#3 28408742#4"/>
   </vehicle>
   <vehicle id="Rand159" depart="0">
      <route edges="27052069#1 27154183#3 27053106#3 27053106#4 27122600#0 27082629#0 27082629#1 27082629#2 27082629#3 27082629#4 27082629#5 27082625#0 27082625#1 27082625#2"/>
   </vehicle>
   <vehicle id="Rand16" depart="0">
      <route edges="27082617#1 27053782#1 27082616#4 27053170#3"/>
   </vehicle>
   <vehicle id="Rand160" depart="0">
      <route edges="27053170#3 27082617#1 27053782#1 27053782#2 27053782#3 27053782#4 27083324#0 27082629#2 27082629#3 27053791#1"/>
   </vehicle>
   <vehicle id="Rand161" depart="0">
      <route edges="27083337#2 27083337#3 27083337#4 27053171#0 27053171#1 27154183#2 27154183#3 27082600#0 27053170#2 27053170#3 27082617#1 27053782#1"/>
   </vehicle>
   <vehicle id="Rand164" depart="0">
      <route edges="27053170#3 27082617#1 27082617#2 27082617#3 27082617#4 -27082628#4 -27082628#3 -27082628#2 -27082628#1 -27082628#0 27082629#5 27082625#0 27082625#1 27082625#2 27082624#1"/>
   </vehicle>
   <vehicle id="Rand166" depart="0">
      <route edges="27082617#3 27082617#4 -27082628#4 -27082628#3 -27082628#2 -27082628#1 -27082628#0 27082629#5 27082625#0 27486763#1"/>
   </vehicle>
   <vehicle id="Rand167" depart="0">
      <route edges="27082628#2 27082628#3 27082616#1 27082616#2 27082616#3 27053782#2 27053782#3"/>
   </vehicle>
   <vehicle id="Rand168" depart="0">
      <route edges="27053106#0 27053106#1 27053106#2 27053106#3 27053106#4 27122600#0 27082629#0 27082629#1 27082629#2 27082629#3 27053791#1"/>
   </vehicle>
   <vehicle id="Rand17" depart="0">
      <route edges="27056027#0 27056034#1 27056034#2 -27494703#0 27494703#0"/>
   </vehicle>
   <vehicle id="Rand170" depart="0">
      <route edges="27082617#4 -27082628#4 27082616#1 27082616#2 27082616#3 27082616#4 27053170#3 27082617#1 27082617#2"/>
   </vehicle>
   <vehicle id="Rand171" depart="0">
      <route edges="-28629700#1 27056027#0 27056027#1 27056027#2 27056036#1"/>
   </vehicle>
   <vehicle id="Rand173" depart="0">
      <route edges="27122600#1 27122600#2 27053786#0 27052067#2 27052067#3 27052067#4 27053170#0 27053170#1 27053170#2 27053170#3 27082617#1 27053782#1"/>
   </vehicle>
   <vehicle id="Rand174" depart="0">
      <route edges="27082628#3 -27082628#3 -27082628#2 28813885#1 28813885#2 28813885#3 28813885#4 28813885#5 27053106#4 -28629700#3 -28629700#2 -28629700#1 28629700#1"/>
   </vehicle>
   <vehicle id="Rand175" depart="0">
      <route edges="27056035#1 27083337#2 27083337#3 27056034#2 27056034#3 27082629#0 27082629#1 27082629#2 27082629#3 27082629#4 27082628#0 27082628#1 27082628#2 27082628#3 27082628#4 27082628#5"/>
   </vehicle>
   <vehicle id="Rand176" depart="0">
      <route edges="-28629700#3 28629700#3 27122600#0 27082629#0 27082629#1 27082629#2 27082629#3 27082629#4 27082629#5 27082625#0 27082625#1 27082625#2 27082625#3 27053786#5"/>
   </vehicle>
   <vehicle id="Rand177" depart="0">
      <route edges="27154183#1 27154183#2 27154183#3 27053106#3 27053106#4 27122600#0 27082629#0 27082629#1 27082629#2 27082629#3 27082629#4 27082628#0 27082604#4"/>
   </vehicle>
   <vehicle id="Rand178" depart="0">
      <route edges="27077992#3 28813885#2 28813885#3 28813885#4 28813885#5 27053106#4 27122600#0 27122600#1"/>
   </vehicle>
   <vehicle id="Rand179" depart="0">
      <route edges="-28629700#3 28629700#3 27122600#0 27082629#0 27082629#1 27082629#2 27082629#3 27053791#1 27053791#2"/>
   </vehicle>
   <vehicle id="Rand18" depart="0">
      <route edges="27083324#2 27053786#2 27053790#2 27053790#3 27082629#3 27082629#4 27082628#0"/>
   </vehicle>
   <vehicle id="Rand180" depart="0">
      <route edges="27053170#1 27082600#1 27053782#3 28813885#4 28813885#5 27053106#4"/>
   </vehicle>
   <vehicle id="Rand181" depart="0">
      <route edges="27083337#2 27083337#3 27056034#2 27056034#3 27082629#0 27082629#1 27082629#2 27082629#3 27082629#4 27082628#0 27082628#1 27082628#2"/>
   </vehicle>
   <vehicle id="Rand182" depart="0">
      <route edges="27078417#1 27078417#2 27082616#3 27082616#4 27082616#5 27055797#0 27055797#1 27639462#0"/>
   </vehicle>
   <vehicle id="Rand183" depart="0">
      <route edges="28408742#3 27052067#1 27052067#2 27052067#3 27082629#1 27082629#2 27082629#3 27082629#4 27082629#5 27082625#0 27486763#1 27486763#0+27486763#2"/>
   </vehicle>
   <vehicle id="Rand184" depart="0">
      <route edges="-28629700#1 28629700#1 28629700#2 27052069#0"/>
   </vehicle>
   <vehicle id="Rand185" depart="0">
      <route edges="27082604#2 27082604#3 27082628#1 28813885#1 28813885#2 28813885#3 28813885#4 27053170#1 27082600#1 27082600#2"/>
   </vehicle>
   <vehicle id="Rand186" depart="0">
      <route edges="27082624#3 27082624#4 27082624#5 27056035#0 27056035#1 27056035#2 27056027#2"/>
   </vehicle>
   <vehicle id="Rand188" depart="0">
      <route edges="28629700#3 27122600#0 27082629#0 27052067#4"/>
   </vehicle>
   <vehicle id="Rand189" depart="0">
      <route edges="27052067#4 27053170#0 27053170#1 27053170#2 27082616#5 27053106#2"/>
   </vehicle>
   <vehicle id="Rand19" depart="0">
      <route edges="-27639510 27639510 27083337#3 27056034#2 27056034#3 27082629#0 27082629#1 27082629#2 27082629#3 27082629#4 27082629#5 27082625#0"/>
   </vehicle>
   <vehicle id="Rand190" depart="0">
      <route edges="27082604#2 27082604#3 27082628#1 28813885#1 28813885#2 28813885#3 28813885#4 28813885#5 27053106#4 -28629700#3 -28629700#2 28629700#2"/>
   </vehicle>
   <vehicle id="Rand191" depart="0">
      <route edges="27083337#3 27056034#2 27056034#3 27082629#0 27082629#1 27083324#1 27082624#4"/>
   </vehicle>
   <vehicle id="Rand193" depart="0">
      <route edges="27053782#1 27053782#2 27053782#3 28813885#4 28813885#5 27053106#4 27122600#0 27122600#1 27056035#0 27056035#1 27083337#2 -27639510"/>
   </vehicle>
   <vehicle id="Rand194" depart="0">
      <route edges="27053786#1 27083324#3 28408742#3 27052067#1 27052067#2 27052067#3 27082629#1 27083324#1"/>
   </vehicle>
   <vehicle id="Rand195" depart="0">
      <route edges="27639462#0 27639462#1 27639462#2 28629700#1 28629700#2 28629700#3 27122600#0 27122600#1 27122600#2"/>
   </vehicle>
   <vehicle id="Rand196" depart="0">
      <route edges="27056027#2 27056036#1 27083337#1 27083337#2 27083337#3 27056034#2 27056034#3 27082629#0 27082629#1 27082629#2 27053790#4 27078417#0 27078417#1 27078417#2 27078417#3 27082617#3 27077992#1"/>
   </vehicle>
   <vehicle id="Rand197" depart="0">
      <route edges="27053786#3 27053791#4 28408742#1 27053790#1 27053790#2 27053790#3 27053790#4 27078417#0 28813885#3 28813885#4 28813885#5 27052071#0 27052071#1 27053171#1 27053171#2"/>
   </vehicle>
   <vehicle id="Rand198" depart="0">
      <route edges="27053782#1 27053782#2 27082600#2 27078417#2"/>
   </vehicle>
   <vehicle id="Rand2" depart="0">
      <route edges="28408742#2 28408742#3 27052067#1 27052067#2 27052067#3 27052067#4 27053170#0 27053170#1 27082600#1"/>
   </vehicle>
   <vehicle id="Rand20" depart="0">
      <route edges="-27494703#0 27056035#1 27083337#2 27083337#3 27083337#4 27053171#0 27053171#1 27154183#2 27154183#3"/>
   </vehicle>
   <vehicle id="Rand201" depart="0">
      <route edges="28813885#4 28813885#5 27053106#4 27122600#0 27082629#0 27082629#1 27082629#2 27082629#3 27082629#4 27082629#5"/>
   </vehicle>
   <vehicle id="Rand202" depart="0">
      <route edges="27053170#1 27082600#1 27053782#3 28813885#4 28813885#5 27053106#4 27122600#0 27122600#1 27056035#0 27056035#1"/>
   </vehicle>
   <vehicle id="Rand203" depart="0">
      <route edges="28408742#3 27052067#1 27052067#2 27052067#3 27082629#1 27082629#2 27082629#3 27082629#4 27082629#5 27082625#0 27082625#1 27486761"/>
   </vehicle>
   <vehicle id="Rand204" depart="0">
      <route edges="27082604#2 27082604#3 27082628#1 27082628#2 27082628#3"/>
   </vehicle>
   <vehicle id="Rand205" depart="0">
      <route edges="-28629700#0 28629700#0 28629700#1 28629700#2 28629700#3 27122600#0"/>
   </vehicle>
   <vehicle id="Rand206" depart="0">
      <route edges="27053790#2 27053790#3 27053790#4 27078417#0 28813885#3 28813885#4"/>
   </vehicle>
   <vehicle id="Rand207" depart="0">
      <route edges="27053790#4 27078417#0 28813885#3 27053782#4 27083324#0 27082629#2"/>
   </vehicle>
   <vehicle id="Rand208" depart="0">
      <route edges="27056034#0 27056034#1 27056034#2 27056034#3 27082629#0 27082629#1 27082629#2 27082629#3 27082629#4 27082628#0 27082628#1 -27082628#1"/>
   </vehicle>
   <vehicle id="Rand209" depart="0">
      <route edges="27082616#1 27082616#2 27082616#3 27082616#4 27053170#3 27053170#4"/>
   </vehicle>
   <vehicle id="Rand21" depart="0">
      <route edges="27053790#3 27053790#4 27078417#0 28813885#3 28813885#4 27053170#1 27053170#2 27053170#3"/>
   </vehicle>
   <vehicle id="Rand210" depart="0">
      <route edges="27052067#0 27052067#1 27052067#2 27052067#3 27082629#1 27082629#2 27053790#4 27078417#0 28813885#3 27053782#4"/>
   </vehicle>
   <vehicle id="Rand211" depart="0">
      <route edges="27082604#3 27082628#1 28813885#1 28813885#2 28813885#3 28813885#4 27053170#1 27053170#2 27082616#5 27053106#2"/>
   </vehicle>
   <vehicle id="Rand212" depart="0">
      <route edges="27052067#3 27052067#4 27053170#0 28813885#5 27053106#4 -28629700#3 -27494703#1"/>
   </vehicle>
   <vehicle id="Rand213" depart="0">
      <route edges="27053782#3 28813885#4"/>
   </vehicle>
   <vehicle id="Rand214" depart="0">
      <route edges="27082604#3 -27082628#0 27082628#0"/>
   </vehicle>
   <vehicle id="Rand215" depart="0">
      <route edges="27082617#2 27082617#3 27082617#4 -27082628#4 -27082628#3 -27082628#2 -27082628#1 27082604#4 27082604#5"/>
   </vehicle>
   <vehicle id="Rand216" depart="0">
      <route edges="27122600#1 27122600#2 27053786#0 27052067#2 27052067#3 27082629#1 27082629#2 27082629#3 27053791#1 27053791#2 27082624#2"/>
   </vehicle>
   <vehicle id="Rand217" depart="0">
      <route edges="27082624#5 27122600#2 27053786#0 27053786#1 27083324#3 28408742#3 27052067#1"/>
   </vehicle>
   <vehicle id="Rand22" depart="0">
      <route edges="27056035#0 27494703#0 27056034#3 27082629#0 27082629#1 27082629#2 27053790#4 27078417#0 27078417#1 27082600#3"/>
   </vehicle>
   <vehicle id="Rand220" depart="0">
      <route edges="28629700#3 27122600#0 27082629#0 27082629#1 27083324#1 27082624#4"/>
   </vehicle>
   <vehicle id="Rand221" depart="0">
      <route edges="27082625#1 27082625#2"/>
   </vehicle>
   <vehicle id="Rand222" depart="0">
      <route edges="27082629#3 27082629#4 27082628#0 27082628#1 28813885#1 28813885#2 28813885#3 28813885#4 27053170#1 27082600#1 27053782#3"/>
   </vehicle>
   <vehicle id="Rand223" depart="0">
      <route edges="27055797#0 27055797#1 27639462#0 27639462#1 27639462#2 28629700#1 28629700#2 28629700#3 27122600#0 27082629#0 27082629#1 27083324#1"/>
   </vehicle>
   <vehicle id="Rand224" depart="0">
      <route edges="28813885#1 28813885#2 28813885#3 28813885#4 28813885#5 27053106#4 27122600#0 27082629#0 27082629#1"/>
   </vehicle>
   <vehicle id="Rand225" depart="0">
      <route edges="27639510 27083337#3 27083337#4 -28629700#1 27056027#0 27056027#1 27056027#2 27056036#1"/>
   </vehicle>
   <vehicle id="Rand226" depart="0">
      <route edges="27154183#2 27154183#3"/>
   </vehicle>
   <vehicle id="Rand227" depart="0">
      <route edges="-28629700#3 27052069#0 27052069#1 27154183#3 27082600#0 27082600#1 27053782#3"/>
   </vehicle>
   <vehicle id="Rand229" depart="0">
      <route edges="27053170#1 27082600#1 27053782#3 28813885#4 28813885#5 27053106#4 27122600#0 27122600#1 27122600#2 27122600#3"/>
   </vehicle>
   <vehicle id="Rand23" depart="0">
      <route edges="27053106#1 27053106#2 27082600#0 27053170#2 27053170#3 27082617#1 27053782#1"/>
   </vehicle>
   <vehicle id="Rand230" depart="0">
      <route edges="-27494703#1 27056034#3 27082629#0 27082629#1 27082629#2 27053790#4 27078417#0 27078417#1 27078417#2 27078417#3 27078417#4"/>
   </vehicle>
   <vehicle id="Rand231" depart="0">
      <route edges="27056027#2 27056036#1 27083337#1 27083337#2 27083337#3 27083337#4 27053171#0 27053171#1 27154183#2 27154183#3 27053106#3"/>
   </vehicle>
   <vehicle id="Rand232" depart="0">
      <route edges="-27082628#4 -27082628#3 -27082628#2 -27082628#1 -27082628#0 27082629#5 27082625#0 27082625#1 27082625#2 27082624#1 27053791#3 27053791#4 28408742#1 28408742#2"/>
   </vehicle>
   <vehicle id="Rand233" depart="0">
      <route edges="-27494703#0 27056035#1 27083337#2 27083337#3 27083337#4 27053171#0 27053171#1 27154183#2 27154183#3 27082600#0 27053170#2"/>
   </vehicle>
   <vehicle id="Rand234" depart="0">
      <route edges="27056035#0 27494703#0 27056034#3 27082629#0 27082629#1 27082629#2 27053790#4 27078417#0 27078417#1 27078417#2 27082616#3"/>
   </vehicle>
   <vehicle id="Rand235" depart="0">
      <route edges="27053790#0 27053790#1 27053790#2 27053790#3 27082629#3 27082629#4 27082629#5 27082629#6"/>
   </vehicle>
   <vehicle id="Rand236" depart="0">
      <route edges="27154183#1 27154183#2 27154183#3 27082600#0 27082600#1 27053782#3"/>
   </vehicle>
   <vehicle id="Rand237" depart="0">
      <route edges="27053791#0 27053791#1 27053791#2 27053791#3 27053791#4"/>
   </vehicle>
   <vehicle id="Rand238" depart="0">
      <route edges="27053786#0 27053786#1"/>
   </vehicle>
   <vehicle id="Rand239" depart="0">
      <route edges="27052071#0 27052069#1 27154183#3 27082600#0 27082600#1 27082600#2 27082600#3 27082600#4 27082628#3 -27082628#3"/>
   </vehicle>
   <vehicle id="Rand24" depart="0">
      <route edges="27053106#2 27053106#3 27053106#4 27122600#0 27122600#1 27122600#2 27122600#3 27122600#4"/>
   </vehicle>
   <vehicle id="Rand240" depart="0">
      <route edges="27082600#1 27053782#3 27053782#4 27082604#1 27078417#0"/>
   </vehicle>
   <vehicle id="Rand241" depart="0">
      <route edges="27053791#3 27053791#4 28408742#1 28408742#2 28408742#3 27052067#1 27052067#2 27082624#5 27056035#0 27494703#0 27494703#1"/>
   </vehicle>
   <vehicle id="Rand242" depart="0">
      <route edges="27154183#3 27053106#3 27053106#4 -28629700#3 -28629700#2 -28629700#1 27056027#0 27056027#1 27056035#3"/>
   </vehicle>
   <vehicle id="Rand244" depart="0">
      <route edges="27082604#3 27082628#1 28813885#1 28813885#2 28813885#3 28813885#4 28813885#5 27053106#4 27122600#0 27122600#1 27122600#2 27122600#3"/>
   </vehicle>
   <vehicle id="Rand245" depart="0">
      <route edges="27083324#3 28408742#3 27052067#1 27052067#2 27052067#3 27052067#4 27082604#0 27082604#1"/>
   </vehicle>
   <vehicle id="Rand246" depart="0">
      <route edges="27082628#2 -27082628#2 28813885#1 28813885#2 28813885#3 28813885#4 28813885#5 27053106#4 -28629700#3 -28629700#2 -28629700#1 27056027#0 27056027#1 27056027#2"/>
   </vehicle>
   <vehicle id="Rand247" depart="0">
      <route edges="27053786#0 27052067#2 27082624#5 27056035#0 27056035#1 27083337#2 27083337#3 27083337#4 28629700#2 27052069#0"/>
   </vehicle>
   <vehicle id="Rand248" depart="0">
      <route edges="28629700#2 -28629700#2 27053171#0 27053171#1 27053171#2 27055797#1 27639462#0 27154183#1"/>
   </vehicle>
   <vehicle id="Rand249" depart="0">
      <route edges="27082629#0 27082629#1 27082629#2 27053790#4 27078417#0 27078417#1 27078417#2"/>
   </vehicle>
   <vehicle id="Rand250" depart="0">
      <route edges="27053170#2 27082616#5 27053106#2 27053106#3 27053106#4 27122600#0 27082629#0 27082629#1 27082629#2 27082629#3 27082629#4 27082629#5 27082625#0 27082625#1"/>
   </vehicle>
   <vehicle id="Rand251" depart="0">
      <route edges="27154183#2 27154183#3 27082600#0 27082600#1 27053782#3 27053782#4"/>
   </vehicle>
   <vehicle id="Rand253" depart="0">
      <route edges="27082624#3 27082624#4 27052067#3 27052067#4 27053170#0 27053170#1 27053170#2 27082616#5 27053106#2"/>
   </vehicle>
   <vehicle id="Rand254" depart="0">
      <route edges="27053170#3 27082617#1 27053782#1 27053782#2 27053782#3 28813885#4 28813885#5 27053106#4 27122600#0 27122600#1 27056035#0 27056035#1 27056035#2"/>
   </vehicle>
   <vehicle id="Rand255" depart="0">
      <route edges="27486761 27053791#2 27082624#2 27053790#3 27053790#4 27078417#0 28813885#3 28813885#4 28813885#5 27053106#4 27122600#0 27122600#1"/>
   </vehicle>
   <vehicle id="Rand256" depart="0">
      <route edges="27083337#0 27083337#1 27083337#2 27083337#3 27056034#2 27056034#3 27082629#0 27082629#1 27082629#2 27053790#4 27078417#0 27078417#1 27078417#2 27082616#3 27053782#2"/>
   </vehicle>
   <vehicle id="Rand257" depart="0">
      <route edges="27082624#2 27053790#3 27053790#4 27078417#0 28813885#3 28813885#4 28813885#5 27052071#0 27052071#1 27052071#2 27639462#2"/>
   </vehicle>
   <vehicle id="Rand259" depart="0">
      <route edges="27053171#1 27154183#2 27154183#3 27053106#3 27053106#4 -28629700#3 -27494703#1 27056034#3"/>
   </vehicle>
   <vehicle id="Rand26" depart="0">
      <route edges="-27494703#1 27494703#1 28629700#3 -28629700#3"/>
   </vehicle>
   <vehicle id="Rand260" depart="0">
      <route edges="27053791#0 27082629#4 27082628#0 27082628#1 28813885#1 28813885#2 28813885#3 28813885#4 27053170#1 27053170#2 27053170#3 27082617#1"/>
   </vehicle>
   <vehicle id="Rand261" depart="0">
      <route edges="27053170#1 27082600#1 27053782#3 27053782#4 27083324#0 27082629#2 27082629#3 27082629#4 27082629#5 27082625#0"/>
   </vehicle>
   <vehicle id="Rand262" depart="0">
      <route edges="27056036#2 27053786#0 27052067#2 27052067#3 27082629#1 27082629#2 27053790#4 27078417#0 28813885#3 28813885#4"/>
   </vehicle>
   <vehicle id="Rand263" depart="0">
      <route edges="-28629700#3 28629700#3 27122600#0 27082629#0 27052067#4"/>
   </vehicle>
   <vehicle id="Rand264" depart="0">
      <route edges="27082628#1 28813885#1 28813885#2 28813885#3 28813885#4 27053170#1 27082600#1 27082600#2"/>
   </vehicle>
   <vehicle id="Rand266" depart="0">
      <route edges="27082600#2 27082600#3 27077992#3 28813885#2 28813885#3 27053782#4 27083324#0 27083324#1 27083324#2 27083324#3 27083324#4"/>
   </vehicle>
   <vehicle id="Rand268" depart="0">
      <route edges="27122600#1 27122600#2 27053786#0 27052067#2 27052067#3 27052067#4 27053170#0 28813885#5"/>
   </vehicle>
   <vehicle id="Rand269" depart="0">
      <route edges="-27082628#5 -27082628#4 -27082628#3 27082628#3"/>
   </vehicle>
   <vehicle id="Rand27" depart="0">
      <route edges="27055797#0 27055797#1 27639462#0 27639462#1 27639462#2 28629700#1 28629700#2 28629700#3 27122600#0 27082629#0 27082629#1 27082629#2 27053790#4 27082604#2 27053791#0"/>
   </vehicle>
   <vehicle id="Rand270" depart="0">
      <route edges="27082616#4 27082616#5 27053106#2 27053106#3 27053106#4 -28629700#3 -28629700#2 -28629700#1 27056027#0 27056027#1"/>
   </vehicle>
   <vehicle id="Rand271" depart="0">
      <route edges="27053106#4 27122600#0 27082629#0 27082629#1 27082629#2 27053790#4 27082604#2"/>
   </vehicle>
   <vehicle id="Rand272" depart="0">
      <route edges="27056034#3 27082629#0 27082629#1 27082629#2 27082629#3 27082629#4 27082628#0 -27082628#0"/>
   </vehicle>
   <vehicle id="Rand274" depart="0">
      <route edges="27053786#2 27053790#2 27053790#3 27082629#3 27082629#4 27082628#0 27082628#1 27082628#2 27082628#3 27082628#4 27082628#5 -27082628#5"/>
   </vehicle>
   <vehicle id="Rand275" depart="0">
      <route edges="27053791#3 27053791#4 28408742#1 27053790#1 27053790#2 27053790#3 27053790#4 27078417#0 28813885#3 28813885#4 27053170#1 27053170#2 27053170#3 27053170#4"/>
   </vehicle>
   <vehicle id="Rand276" depart="0">
      <route edges="27082625#2 27082624#1 27082624#2 27053790#3 27053790#4 27078417#0 28813885#3 28813885#4 27053170#1 27053170#2 27082616#5 27055797#0"/>
   </vehicle>
   <vehicle id="Rand277" depart="0">
      <route edges="27056027#2 27056036#1 27083337#1 27083337#2 27083337#3 27056034#2 27056034#3 27082629#0 27082629#1 27082629#2 27082629#3 27082629#4 27082629#5 27082625#0 27082625#1 27082625#2 27082625#3"/>
   </vehicle>
   <vehicle id="Rand278" depart="0">
      <route edges="28408742#3 27052067#1 27052067#2 27082624#5 27056035#0 27056035#1 27083337#2 27083337#3 27083337#4 27053171#0 27053171#1 27053171#2 27055797#1 27055797#2"/>
   </vehicle>
   <vehicle id="Rand279" depart="0">
      <route edges="27056034#2 27056034#3 27082629#0 27052067#4 27082604#0 27082604#1"/>
   </vehicle>
   <vehicle id="Rand281" depart="0">
      <route edges="27639510 27083337#3 27083337#4 -28629700#1 27056027#0 27056027#1 27056027#2 27056036#1 27056036#2"/>
   </vehicle>