<?xml version="1.0" encoding="UTF-8"?>

<!-- generated on Wed May 21 17:12:32 2014 by SUMO netconvert Version 0.18.0
<?xml version="1.0" encoding="UTF-8"?>

<configuration xmlns:xsi="http://www.w3.org/2001/XMLSchema-instance" xsi:noNamespaceSchemaLocation="http://sumo.sf.net/xsd/netconvertConfiguration.xsd">

    <input>
        <osm-files value="alameda.osm.xml"/>
    </input>

    <output>
        <output-file value="alameda.net.xml"/>
    </output>

    <projection>
        <proj.utm value="true"/>
    </projection>

    <tls_building>
        <tls.discard-simple value="true"/>
        <tls.set value="303278164,419656062,419656049,303276132,419656076,331525911,419646198,419646059,419646058,549226071,419656030,418376981,419646084,419659496,419625737,419659665,303278502,418234858,331525908,419641406,766791450,419640946,419641100,419640940,419641424,419641199,331526231,303275904,303275910,419674915,419677113,419680393,419632850,419630409,303275664,419677116,303275666,303275667,419680391,765632521,419677118,577406877,766079758,303275184"/>
        <tls.join value="true"/>
    </tls_building>

    <ramp_guessing>
        <ramps.guess value="true"/>
    </ramp_guessing>

    <edge_removal>
        <remove-edges.by-vclass value="hov,taxi,bus,delivery,transport,lightrail,cityrail,rail_slow,rail_fast,motorcycle,bicycle,pedestrian"/>
        <remove-edges.by-type value="highway.track,highway.service"/>
        <remove-edges.isolated value="true"/>
    </edge_removal>

    <processing>
        <no-internal-links value="true"/>
        <geometry.remove value="true"/>
        <roundabouts.guess value="true"/>
        <junctions.join value="true"/>
        <junctions.join-dist value="7.5"/>
        <tls.join-dist value="25"/>
    </processing>

    <report>
        <verbose value="true"/>
    </report>

</configuration>
-->

<net version="0.13" xmlns:xsi="http://www.w3.org/2001/XMLSchema-instance" xsi:noNamespaceSchemaLocation="http://sumo.sf.net/xsd/net_file.xsd">

    <location netOffset="-372671.10,-4063955.32" convBoundary="0.00,0.00,545.39,719.36" origBoundary="-4.425715,36.712770,-4.419646,36.720846" projParameter="+proj=utm +zone=30 +ellps=WGS84 +datum=WGS84 +units=m +no_defs"/>

    <edge id="-27617806" from="766091352" to="419672506" priority="4" type="highway.residential">
        <lane id="-27617806_0" index="0" speed="13.89" length="39.11" shape="53.64,519.07 20.65,507.47"/>
    </edge>
    <edge id="-27617819#0" from="331525911" to="303276132" priority="4" type="highway.residential">
        <lane id="-27617819#0_0" index="0" speed="13.89" length="30.42" shape="344.17,353.78 350.81,336.22"/>
    </edge>
    <edge id="-27617819#1" from="419646059" to="331525911" priority="4" type="highway.residential">
        <lane id="-27617819#1_0" index="0" speed="13.89" length="40.38" shape="332.60,394.10 341.27,362.67"/>
    </edge>
    <edge id="-27617819#2" from="418376981" to="419646059" priority="4" type="highway.residential">
        <lane id="-27617819#2_0" index="0" speed="13.89" length="32.75" shape="321.20,424.42 330.59,400.13"/>
    </edge>
    <edge id="-27617819#3" from="419625737" to="418376981" priority="4" type="highway.residential">
        <lane id="-27617819#3_0" index="0" speed="13.89" length="48.96" shape="306.33,471.27 319.03,430.60"/>
    </edge>
    <edge id="-27617819#4" from="419641406" to="419625737" priority="4" type="highway.residential">
        <lane id="-27617819#4_0" index="0" speed="13.89" length="40.28" shape="296.28,508.62 304.62,477.17"/>
    </edge>
    <edge id="-27617850#0" from="418234837" to="303277850" priority="4" type="highway.residential">
        <lane id="-27617850#0_0" index="0" speed="13.89" length="28.15" shape="164.75,153.55 149.42,136.15"/>
    </edge>
    <edge id="-27617850#1" from="cluster_303278164_419652681_419652684" to="418234837" priority="4" type="highway.residential" shape="226.98,221.72 169.26,156.18">
        <lane id="-27617850#1_0" index="0" speed="13.89" length="89.37" shape="223.63,220.41 172.70,162.58"/>
    </edge>
    <edge id="-27617850#3" from="419656062" to="cluster_303278164_419652681_419652684" priority="4" type="highway.residential" shape="270.62,271.26 239.76,236.22">
        <lane id="-27617850#3_0" index="0" speed="13.89" length="64.68" shape="264.23,266.51 227.73,225.06"/>
    </edge>
    <edge id="-27617850#4" from="303277852" to="419656062" priority="4" type="highway.residential">
        <lane id="-27617850#4_0" index="0" speed="13.89" length="54.50" shape="298.87,305.84 274.19,277.82"/>
    </edge>
    <edge id="-27617865#1" from="418234847" to="cluster_303278164_419652681_419652684" priority="4" type="highway.residential" shape="150.50,210.23 220.17,230.52">
        <lane id="-27617865#1_0" index="0" speed="13.89" length="82.05" shape="155.69,210.02 223.63,229.81"/>
    </edge>
    <edge id="-27617865#2" from="303278277" to="418234847" priority="4" type="highway.residential">
        <lane id="-27617865#2_0" index="0" speed="13.89" length="37.40" shape="119.64,199.34 146.30,207.26"/>
    </edge>
    <edge id="-30098184#0" from="419659496" to="331525908" priority="4" type="highway.residential">
        <lane id="-30098184#0_0" index="0" speed="13.89" length="43.91" shape="215.94,445.14 205.11,479.20"/>
    </edge>
    <edge id="-30098184#1" from="419656030" to="419659496" priority="4" type="highway.residential">
        <lane id="-30098184#1_0" index="0" speed="13.89" length="44.62" shape="229.50,402.50 217.85,439.11"/>
    </edge>
    <edge id="-30098184#2" from="419656038" to="419656030" priority="4" type="highway.residential">
        <lane id="-30098184#2_0" index="0" speed="13.89" length="31.25" shape="239.35,372.97 231.44,396.56"/>
    </edge>
    <edge id="-30098184#3" from="419656076" to="419656038" priority="4" type="highway.residential">
        <lane id="-30098184#3_0" index="0" speed="13.89" length="42.55" shape="253.02,334.44 241.46,366.87"/>
    </edge>
    <edge id="-30098184#4" from="419656024" to="419656076" priority="4" type="highway.residential">
        <lane id="-30098184#4_0" index="0" speed="13.89" length="32.19" shape="262.86,301.92 256.04,325.15"/>
    </edge>
    <edge id="-30098184#5" from="419656062" to="419656024" priority="4" type="highway.residential">
        <lane id="-30098184#5_0" index="0" speed="13.89" length="28.46" shape="270.03,278.71 264.67,295.96"/>
    </edge>
    <edge id="-30098184#6" from="419656049" to="419656062" priority="4" type="highway.residential" shape="283.84,243.77 275.06,252.50 270.62,271.26">
        <lane id="-30098184#6_0" index="0" speed="13.89" length="31.66" shape="279.47,250.44 276.56,253.34 274.02,264.07"/>
    </edge>
    <edge id="-30098185#0" from="419646227" to="419646226" priority="4" type="highway.residential">
        <lane id="-30098185#0_0" index="0" speed="13.89" length="33.89" shape="118.94,287.91 96.10,279.83"/>
    </edge>
    <edge id="-30098185#1" from="419652689" to="419646227" priority="4" type="highway.residential">
        <lane id="-30098185#1_0" index="0" speed="13.89" length="73.80" shape="190.88,311.01 128.09,290.98"/>
    </edge>
    <edge id="-30098185#2" from="419656076" to="419652689" priority="4" type="highway.residential">
        <lane id="-30098185#2_0" index="0" speed="13.89" length="61.78" shape="247.97,329.40 196.80,312.90"/>
    </edge>
    <edge id="-30098185#3" from="331525911" to="419656076" priority="4" type="highway.residential">
        <lane id="-30098185#3_0" index="0" speed="13.89" length="95.61" shape="339.19,358.82 257.03,332.32"/>
    </edge>
    <edge id="-30098198" from="331526231" to="331526227" priority="4" type="highway.residential">
        <lane id="-30098198_0" index="0" speed="13.89" length="48.54" shape="314.26,582.30 301.36,619.15"/>
    </edge>
    <edge id="-35773427#0" from="418234837" to="419669836" priority="4" type="highway.residential">
        <lane id="-35773427#0_0" index="0" speed="13.89" length="41.89" shape="171.61,151.51 193.91,129.26"/>
    </edge>
    <edge id="-35773427#1" from="418234847" to="418234837" priority="4" type="highway.residential">
        <lane id="-35773427#1_0" index="0" speed="13.89" length="57.21" shape="150.56,205.04 165.39,162.32"/>
    </edge>
    <edge id="-35773427#2" from="418234851" to="418234847" priority="4" type="highway.residential">
        <lane id="-35773427#2_0" index="0" speed="13.89" length="52.67" shape="133.08,256.51 147.37,214.32"/>
    </edge>
    <edge id="-35773427#3" from="419646227" to="418234851" priority="4" type="highway.residential">
        <lane id="-35773427#3_0" index="0" speed="13.89" length="29.44" shape="124.01,282.84 130.99,262.61"/>
    </edge>
    <edge id="-35773427#4" from="419646061" to="419646227" priority="4" type="highway.residential">
        <lane id="-35773427#4_0" index="0" speed="13.89" length="44.50" shape="108.95,326.43 120.89,291.87"/>
    </edge>
    <edge id="-35773427#5" from="418376983" to="419646061" priority="4" type="highway.residential">
        <lane id="-35773427#5_0" index="0" speed="13.89" length="30.09" shape="99.14,354.86 106.84,332.55"/>
    </edge>
    <edge id="-35773427#6" from="419625735" to="418376983" priority="4" type="highway.residential">
        <lane id="-35773427#6_0" index="0" speed="13.89" length="44.77" shape="86.45,397.96 97.18,361.03"/>
    </edge>
    <edge id="-35773427#7" from="418234858" to="419625735" priority="4" type="highway.residential">
        <lane id="-35773427#7_0" index="0" speed="13.89" length="46.73" shape="73.87,441.21 84.69,404.02"/>
    </edge>
    <edge id="-35900161" from="418376985" to="418376984" priority="7" type="highway.secondary" shape="0.00,333.97 45.14,339.98 71.72,347.63">
        <lane id="-35900161_0" index="0" speed="27.78" length="73.20" shape="0.65,329.06 45.79,335.07 65.41,340.68"/>
        <lane id="-35900161_1" index="1" speed="27.78" length="73.20" shape="0.22,332.34 45.36,338.34 64.50,343.84"/>
    </edge>
    <edge id="-35901912#0" from="419646058" to="419646084" priority="4" type="highway.residential">
        <lane id="-35901912#0_0" index="0" speed="13.89" length="29.14" shape="406.44,426.62 398.30,451.47"/>
    </edge>
    <edge id="-35901912#1" from="cluster_419646198_419646199" to="419646058" priority="4" type="highway.residential" shape="419.07,406.92 405.81,423.24">
        <lane id="-35901912#1_0" index="0" speed="13.89" length="24.70" shape="416.92,412.18 408.38,422.69"/>
    </edge>
    <edge id="-35903338#0" from="303275664" to="419680391" priority="7" type="highway.secondary">
        <lane id="-35903338#0_0" index="0" speed="27.78" length="40.97" shape="82.91,531.14 75.26,562.08"/>
        <lane id="-35903338#0_1" index="1" speed="27.78" length="40.97" shape="79.71,530.35 72.05,561.29"/>
    </edge>
    <edge id="-35903338#1" from="419680393" to="303275664" priority="7" type="highway.secondary">
        <lane id="-35903338#1_0" index="0" speed="27.78" length="26.07" shape="89.08,507.11 84.73,523.94"/>
        <lane id="-35903338#1_1" index="1" speed="27.78" length="26.07" shape="85.89,506.29 81.54,523.11"/>
    </edge>
    <edge id="-61278965" from="577406877" to="577406878" priority="5" type="highway.unclassified">
        <lane id="-61278965_0" index="0" speed="22.22" length="66.02" shape="197.30,616.07 172.36,663.39"/>
    </edge>
    <edge id="-61279128#0" from="765632847" to="765632521" priority="7" type="highway.secondary">
        <lane id="-61279128#0_0" index="0" speed="27.78" length="49.83" shape="102.04,618.88 123.88,591.86"/>
        <lane id="-61279128#0_1" index="1" speed="27.78" length="49.83" shape="104.60,620.96 126.44,593.93"/>
    </edge>
    <edge id="-61279128#1" from="766885441" to="765632847" priority="7" type="highway.secondary" shape="43.74,719.36 50.27,709.97 71.80,676.92 102.42,626.29">
        <lane id="-61279128#1_0" index="0" speed="27.78" length="110.05" shape="39.67,716.53 46.21,707.15 67.65,674.22 95.65,627.91"/>
        <lane id="-61279128#1_1" index="1" speed="27.78" length="110.05" shape="42.38,718.42 48.91,709.03 70.41,676.02 98.47,629.62"/>
    </edge>
    <edge id="-61279142#0" from="577406878" to="765591226" priority="5" type="highway.unclassified">
        <lane id="-61279142#0_0" index="0" speed="22.22" length="55.80" shape="173.42,667.87 217.64,693.67"/>
    </edge>
    <edge id="-61279142#1" from="765632847" to="577406878" priority="5" type="highway.unclassified" shape="102.42,626.29 136.50,647.93 168.61,666.97">
        <lane id="-61279142#1_0" index="0" speed="22.22" length="77.70" shape="110.45,629.43 137.38,646.54 165.22,663.04"/>
    </edge>
    <edge id="23161464#0" from="419640940" to="cluster_303275904_303275910" priority="7" type="highway.secondary" spreadType="center" shape="371.55,579.55 288.56,546.04">
        <lane id="23161464#0_0" index="0" speed="27.78" length="104.04" shape="369.49,580.50 291.53,549.02"/>
        <lane id="23161464#0_1" index="1" speed="27.78" length="104.04" shape="370.73,577.44 292.68,545.92"/>
    </edge>
    <edge id="23161464#1" from="cluster_303275904_303275910" to="cluster_419630409_419632850" priority="7" type="highway.secondary" spreadType="center" shape="288.56,546.04 163.66,508.18 33.53,476.04">
        <lane id="23161464#1_0" index="0" speed="27.78" length="278.87" shape="282.04,545.78 163.18,509.76 49.20,481.61"/>
        <lane id="23161464#1_1" index="1" speed="27.78" length="278.87" shape="283.00,542.63 164.14,506.60 50.05,478.42"/>
    </edge>
    <edge id="23161464#2" from="cluster_419630409_419632850" to="248606034" priority="7" type="highway.secondary" spreadType="center" shape="33.53,476.04 12.06,470.73">
        <lane id="23161464#2_0" index="0" speed="27.78" length="30.15" shape="17.87,473.87 11.66,472.33"/>
        <lane id="23161464#2_1" index="1" speed="27.78" length="30.15" shape="18.66,470.66 12.45,469.13"/>
    </edge>
    <edge id="23162032#2" from="418376980" to="cluster_419646198_419646199" priority="7" type="highway.secondary" spreadType="center" shape="478.52,477.94 419.07,406.92">
        <lane id="23162032#2_0" index="0" speed="27.78" length="96.28" shape="476.29,477.84 421.30,412.14"/>
        <lane id="23162032#2_1" index="1" speed="27.78" length="96.28" shape="478.82,475.72 423.82,410.02"/>
    </edge>
    <edge id="23162032#3" from="cluster_419646198_419646199" to="303276132" priority="7" type="highway.secondary" spreadType="center" shape="419.07,406.92 354.85,330.21">
        <lane id="23162032#3_0" index="0" speed="27.78" length="103.71" shape="415.13,404.77 358.11,336.68"/>
        <lane id="23162032#3_1" index="1" speed="27.78" length="103.71" shape="417.66,402.65 360.64,334.56"/>
    </edge>
    <edge id="23162032#4" from="303276132" to="419656049" priority="7" type="highway.secondary" spreadType="center" shape="354.85,330.21 315.95,283.44 283.84,243.77">
        <lane id="23162032#4_0" index="0" speed="27.78" length="111.87" shape="346.92,323.25 314.68,284.49 285.77,248.77"/>
        <lane id="23162032#4_1" index="1" speed="27.78" length="111.87" shape="349.46,321.14 317.22,282.38 288.33,246.69"/>
    </edge>
    <edge id="23162032#5" from="419656049" to="419652679" priority="7" type="highway.secondary" spreadType="center" shape="282.52,244.84 248.10,202.31">
        <lane id="23162032#5_0" index="0" speed="27.78" length="58.11" shape="277.38,243.73 247.56,206.88"/>
        <lane id="23162032#5_1" index="1" speed="27.78" length="58.11" shape="279.95,241.66 250.13,204.81"/>
        <lane id="23162032#5_2" index="2" speed="27.78" length="58.11" shape="282.51,239.58 252.69,202.73"/>
    </edge>
    <edge id="23162032#6" from="419652679" to="419669836" priority="7" type="highway.secondary" spreadType="center">
        <lane id="23162032#6_0" index="0" speed="27.78" length="90.13" shape="246.39,199.70 200.60,132.01"/>
        <lane id="23162032#6_1" index="1" speed="27.78" length="90.13" shape="249.13,197.85 203.33,130.16"/>
    </edge>
    <edge id="23162032#7" from="419669836" to="250325368" priority="7" type="highway.secondary" spreadType="center" shape="198.92,126.59 170.05,83.91 165.88,77.76 145.38,39.12 124.31,15.00 106.45,0.00">
        <lane id="23162032#7_0" index="0" speed="27.78" length="158.04" shape="195.21,124.05 168.68,84.83 164.52,78.68 144.01,40.07 123.07,16.09 105.39,1.26"/>
        <lane id="23162032#7_1" index="1" speed="27.78" length="158.04" shape="197.94,122.20 171.41,82.98 167.25,76.83 146.75,38.18 125.55,13.92 107.51,-1.26"/>
    </edge>
    <edge id="27131168#0" from="303275184" to="577406877" priority="7" type="highway.secondary" spreadType="center" shape="255.31,627.72 222.64,617.63 198.88,610.19">
        <lane id="27131168#0_0" index="0" speed="27.78" length="62.49" shape="249.86,629.49 221.67,620.78 201.32,614.41"/>
        <lane id="27131168#0_1" index="1" speed="27.78" length="62.49" shape="250.84,626.34 222.64,617.63 202.31,611.26"/>
        <lane id="27131168#0_2" index="2" speed="27.78" length="62.49" shape="251.81,623.18 223.62,614.47 203.30,608.11"/>
    </edge>
    <edge id="27131168#2" from="577406877" to="419677118" priority="7" type="highway.secondary" spreadType="center" shape="199.39,608.57 151.91,602.28">
        <lane id="27131168#2_0" index="0" speed="27.78" length="56.15" shape="193.06,609.39 161.52,605.22"/>
        <lane id="27131168#2_1" index="1" speed="27.78" length="56.15" shape="193.50,606.12 161.96,601.95"/>
    </edge>
    <edge id="27131168#3" from="419677118" to="765632521" priority="7" type="highway.secondary" spreadType="center" shape="153.47,597.58 132.70,590.66">
        <lane id="27131168#3_0" index="0" speed="27.78" length="28.50" shape="147.41,600.78 135.69,596.88"/>
        <lane id="27131168#3_1" index="1" speed="27.78" length="28.50" shape="148.45,597.65 136.74,593.75"/>
        <lane id="27131168#3_2" index="2" speed="27.78" length="28.50" shape="149.49,594.52 137.78,590.61"/>
        <lane id="27131168#3_3" index="3" speed="27.78" length="28.50" shape="150.54,591.39 138.83,587.48"/>
    </edge>
    <edge id="27131168#4" from="765632521" to="419680391" priority="7" type="highway.secondary" spreadType="center">
        <lane id="27131168#4_0" index="0" speed="27.78" length="68.05" shape="124.01,586.02 76.07,570.05"/>
        <lane id="27131168#4_1" index="1" speed="27.78" length="68.05" shape="125.05,582.89 77.12,566.92"/>
    </edge>
    <edge id="27131168#5" from="419680391" to="419671677" priority="7" type="highway.secondary" spreadType="center" shape="69.18,566.02 61.16,563.34 12.89,565.58">
        <lane id="27131168#5_0" index="0" speed="27.78" length="56.78" shape="60.76,565.01 12.97,567.23"/>
        <lane id="27131168#5_1" index="1" speed="27.78" length="56.78" shape="61.81,561.82 61.39,561.68 12.81,563.93"/>
    </edge>
    <edge id="27617806" from="419672506" to="766091352" priority="4" type="highway.residential">
        <lane id="27617806_0" index="0" speed="13.89" length="39.11" shape="21.75,504.36 54.74,515.96"/>
    </edge>
    <edge id="27617819#0" from="303276132" to="331525911" priority="4" type="highway.residential">
        <lane id="27617819#0_0" index="0" speed="13.89" length="30.42" shape="353.90,337.39 347.26,354.95"/>
    </edge>
    <edge id="27617819#1" from="331525911" to="419646059" priority="4" type="highway.residential">
        <lane id="27617819#1_0" index="0" speed="13.89" length="40.38" shape="344.45,363.55 335.78,394.98"/>
    </edge>
    <edge id="27617819#2" from="419646059" to="418376981" priority="4" type="highway.residential">
        <lane id="27617819#2_0" index="0" speed="13.89" length="32.75" shape="333.67,401.32 324.27,425.61"/>
    </edge>
    <edge id="27617819#3" from="418376981" to="419625737" priority="4" type="highway.residential">
        <lane id="27617819#3_0" index="0" speed="13.89" length="48.96" shape="322.18,431.58 309.48,472.26"/>
    </edge>
    <edge id="27617819#4" from="419625737" to="419641406" priority="4" type="highway.residential">
        <lane id="27617819#4_0" index="0" speed="13.89" length="40.28" shape="307.81,478.01 299.47,509.47"/>
    </edge>
    <edge id="27617828#0" from="303275185" to="331526227" priority="4" type="highway.residential" spreadType="center" shape="380.02,616.25 324.84,620.74 298.24,623.06">
        <lane id="27617828#0_0" index="0" speed="13.89" length="82.06" shape="380.02,616.25 324.84,620.74 304.01,622.55"/>
    </edge>
    <edge id="27617828#2" from="331526227" to="303275184" priority="4" type="highway.residential" spreadType="center" shape="298.24,623.06 254.34,630.87">
        <lane id="27617828#2_0" index="0" speed="13.89" length="49.60" shape="293.98,623.81 263.94,629.16"/>
    </edge>
    <edge id="27617850#0" from="303277850" to="418234837" priority="4" type="highway.residential">
        <lane id="27617850#0_0" index="0" speed="13.89" length="28.15" shape="151.89,133.97 167.22,151.37"/>
    </edge>
    <edge id="27617850#1" from="418234837" to="cluster_303278164_419652681_419652684" priority="4" type="highway.residential" shape="169.26,156.18 226.98,221.72">
        <lane id="27617850#1_0" index="0" speed="13.89" length="89.37" shape="175.18,160.39 226.11,218.23"/>
    </edge>
    <edge id="27617850#3" from="cluster_303278164_419652681_419652684" to="419656062" priority="4" type="highway.residential" shape="239.76,236.22 270.62,271.26">
        <lane id="27617850#3_0" index="0" speed="13.89" length="64.68" shape="230.21,222.88 266.71,264.33"/>
    </edge>
    <edge id="27617850#4" from="419656062" to="303277852" priority="4" type="highway.residential">
        <lane id="27617850#4_0" index="0" speed="13.89" length="54.50" shape="276.67,275.64 301.35,303.66"/>
    </edge>
    <edge id="27617860" from="303277852" to="303276132" priority="4" type="highway.residential" spreadType="center">
        <lane id="27617860_0" index="0" speed="13.89" length="51.48" shape="311.70,314.05 344.68,326.40"/>
    </edge>
    <edge id="27617865#1" from="cluster_303278164_419652681_419652684" to="418234847" priority="4" type="highway.residential" shape="220.17,230.52 150.50,210.23">
        <lane id="27617865#1_0" index="0" speed="13.89" length="82.05" shape="225.67,233.84 154.76,213.19"/>
    </edge>
    <edge id="27617865#2" from="418234847" to="303278277" priority="4" type="highway.residential">
        <lane id="27617865#2_0" index="0" speed="13.89" length="37.40" shape="145.36,210.42 118.70,202.50"/>
    </edge>
    <edge id="30098184#0" from="331525908" to="419659496" priority="4" type="highway.residential">
        <lane id="30098184#0_0" index="0" speed="13.89" length="43.91" shape="201.96,478.20 212.79,444.14"/>
    </edge>
    <edge id="30098184#1" from="419659496" to="419656030" priority="4" type="highway.residential">
        <lane id="30098184#1_0" index="0" speed="13.89" length="44.62" shape="214.71,438.11 226.36,401.50"/>
    </edge>
    <edge id="30098184#2" from="419656030" to="419656038" priority="4" type="highway.residential">
        <lane id="30098184#2_0" index="0" speed="13.89" length="31.25" shape="228.32,395.51 236.22,371.92"/>
    </edge>
    <edge id="30098184#3" from="419656038" to="419656076" priority="4" type="highway.residential">
        <lane id="30098184#3_0" index="0" speed="13.89" length="42.55" shape="238.35,365.76 249.91,333.34"/>
    </edge>
    <edge id="30098184#4" from="419656076" to="419656024" priority="4" type="highway.residential">
        <lane id="30098184#4_0" index="0" speed="13.89" length="32.19" shape="252.87,324.22 259.70,300.99"/>
    </edge>
    <edge id="30098184#5" from="419656024" to="419656062" priority="4" type="highway.residential">
        <lane id="30098184#5_0" index="0" speed="13.89" length="28.46" shape="261.51,294.98 266.88,277.73"/>
    </edge>
    <edge id="30098184#6" from="419656062" to="419656049" priority="4" type="highway.residential" shape="270.62,271.26 275.06,252.50 283.84,243.77">
        <lane id="30098184#6_0" index="0" speed="13.89" length="31.66" shape="270.81,263.31 273.57,251.66 277.15,248.10"/>
    </edge>
    <edge id="30098185#0" from="419646226" to="419646227" priority="4" type="highway.residential">
        <lane id="30098185#0_0" index="0" speed="13.89" length="33.89" shape="97.20,276.72 120.04,284.79"/>
    </edge>
    <edge id="30098185#1" from="419646227" to="419652689" priority="4" type="highway.residential">
        <lane id="30098185#1_0" index="0" speed="13.89" length="73.80" shape="129.09,287.84 191.88,307.86"/>
    </edge>
    <edge id="30098185#2" from="419652689" to="419656076" priority="4" type="highway.residential">
        <lane id="30098185#2_0" index="0" speed="13.89" length="61.78" shape="197.81,309.76 248.98,326.26"/>
    </edge>
    <edge id="30098185#3" from="419656076" to="331525911" priority="4" type="highway.residential">
        <lane id="30098185#3_0" index="0" speed="13.89" length="95.61" shape="258.04,329.18 340.20,355.68"/>
    </edge>
    <edge id="30098198" from="331526227" to="331526231" priority="4" type="highway.residential">
        <lane id="30098198_0" index="0" speed="13.89" length="48.54" shape="298.25,618.06 311.14,581.21"/>
    </edge>
    <edge id="30098199#0" from="419641424" to="331526231" priority="7" type="highway.secondary" spreadType="center" shape="380.44,597.00 356.15,590.41 314.28,577.25">
        <lane id="30098199#0_0" index="0" speed="27.78" length="77.31" shape="368.55,595.48 355.71,592.00 318.22,580.21"/>
        <lane id="30098199#0_1" index="1" speed="27.78" length="77.31" shape="369.41,592.30 356.58,588.81 319.21,577.06"/>
    </edge>
    <edge id="30098199#1" from="331526231" to="331526235" priority="7" type="highway.secondary" spreadType="center">
        <lane id="30098199#1_0" index="0" speed="27.78" length="42.14" shape="309.22,577.27 279.67,567.20"/>
        <lane id="30098199#1_1" index="1" speed="27.78" length="42.14" shape="310.29,574.14 280.73,564.08"/>
    </edge>
    <edge id="30098199#2" from="331526235" to="30098199#2-AddedOffRampNode" priority="7" type="highway.secondary" spreadType="center">
        <lane id="30098199#2_0" index="0" speed="27.78" length="3.87" shape="272.11,564.62 271.92,564.56"/>
        <lane id="30098199#2_1" index="1" speed="27.78" length="3.87" shape="273.18,561.50 273.00,561.43"/>
    </edge>
    <edge id="30098199#2-AddedOffRampEdge" from="30098199#2-AddedOffRampNode" to="419677113" priority="7" type="highway.secondary" spreadType="center" shape="269.65,565.52 229.84,551.86 175.23,532.50">
        <lane id="30098199#2-AddedOffRampEdge_0" index="0" speed="27.78" length="106.63" shape="266.63,569.72 228.24,556.54 178.09,538.77"/>
        <lane id="30098199#2-AddedOffRampEdge_1" index="1" speed="27.78" length="106.63" shape="267.70,566.59 229.31,553.42 179.19,535.66"/>
        <lane id="30098199#2-AddedOffRampEdge_2" index="2" speed="27.78" length="106.63" shape="268.77,563.47 230.38,550.30 180.29,532.55"/>
        <lane id="30098199#2-AddedOffRampEdge_3" index="3" speed="27.78" length="106.63" shape="269.84,560.35 231.45,547.18 181.39,529.44"/>
    </edge>
    <edge id="30098199#4" from="419677113" to="419680393" priority="7" type="highway.secondary" spreadType="center" shape="176.33,529.39 159.21,523.39 85.55,501.01">
        <lane id="30098199#4_0" index="0" speed="27.78" length="95.13" shape="171.18,529.34 158.67,524.95 92.91,504.97"/>
        <lane id="30098199#4_1" index="1" speed="27.78" length="95.13" shape="172.27,526.22 159.76,521.83 93.87,501.81"/>
    </edge>
    <edge id="30098199#5" from="419680393" to="cluster_419630409_419632850" priority="7" type="highway.secondary" spreadType="center" shape="85.55,501.01 52.42,490.95 33.53,476.04">
        <lane id="30098199#5_0" index="0" speed="27.78" length="66.72" shape="77.49,500.28 51.64,492.43 45.47,487.57"/>
        <lane id="30098199#5_1" index="1" speed="27.78" length="66.72" shape="78.45,497.13 53.19,489.46 47.52,484.98"/>
    </edge>
    <edge id="34474997#0" from="303278502" to="419625734" priority="7" type="highway.secondary" spreadType="center" shape="33.14,435.41 45.50,428.72 54.66,391.69">
        <lane id="34474997#0_0" index="0" speed="27.78" length="65.45" shape="39.74,429.96 44.07,427.62 52.31,394.32"/>
        <lane id="34474997#0_1" index="1" speed="27.78" length="65.45" shape="41.32,432.86 46.92,429.83 55.52,395.11"/>
    </edge>
    <edge id="34474997#1" from="419625734" to="418376984" priority="7" type="highway.secondary" spreadType="center" shape="57.85,392.55 70.08,347.19">
        <lane id="34474997#1_0" index="0" speed="27.78" length="50.39" shape="55.44,388.80 64.83,353.99"/>
        <lane id="34474997#1_1" index="1" speed="27.78" length="50.39" shape="58.63,389.66 68.02,354.85"/>
        <lane id="34474997#1_2" index="2" speed="27.78" length="50.39" shape="61.81,390.52 71.20,355.71"/>
    </edge>
    <edge id="34474997#2" from="418376984" to="419646062" priority="7" type="highway.secondary" spreadType="center" shape="71.72,347.63 74.38,319.82">
        <lane id="34474997#2_0" index="0" speed="27.78" length="32.93" shape="70.91,338.75 71.77,329.76"/>
        <lane id="34474997#2_1" index="1" speed="27.78" length="32.93" shape="74.20,339.06 75.06,330.07"/>
    </edge>
    <edge id="34474997#3" from="419646062" to="419646226" priority="7" type="highway.secondary" spreadType="center" shape="77.55,320.74 90.40,276.17">
        <lane id="34474997#3_0" index="0" speed="27.78" length="49.78" shape="75.24,316.85 85.86,280.01"/>
        <lane id="34474997#3_1" index="1" speed="27.78" length="49.78" shape="78.41,317.76 89.03,280.92"/>
        <lane id="34474997#3_2" index="2" speed="27.78" length="49.78" shape="81.58,318.68 92.20,281.84"/>
    </edge>
    <edge id="34474997#4" from="419646226" to="303278079" priority="7" type="highway.secondary" spreadType="center" shape="92.04,276.64 95.02,248.35">
        <lane id="34474997#4_0" index="0" speed="27.78" length="33.45" shape="90.82,272.43 92.26,258.81"/>
        <lane id="34474997#4_1" index="1" speed="27.78" length="33.45" shape="94.10,272.77 95.54,259.16"/>
    </edge>