<?xml version="1.0"?>

<!-- generated on 06/14/10 11:04:04 by SUMO duarouter Version 0.11.1
<configuration>

    <input>
        <net-file value="D:\SW\mapas\tl2\malaga-alameda\40\alameda.net.xml"/>
    </input>

    <output>
        <output-file value=".\..\examples\vehicleroutes\alameda.rou.xml"/>
    </output>

    <processing>
        <random-per-second value="110"/>
    </processing>

    <time>
        <begin value="0"/>
        <end value="10"/>
    </time>

    <random_number>
        <abs-rand value="true"/>
    </random_number>

</configuration>
-->

<routes>
   <vehicle id="Rand0" depart="0">
      <route edges="30098198 30098199#1 30098199#2 30098199#3 30098199#4 30098199#5 30098199#6 35900343#0 34474997#0 34474997#1 34474997#2 34474997#3 30098185#0 35773427#4"/>
   </vehicle>
   <vehicle id="Rand1" depart="0">
      <route edges="35902564#2 34474997#1 35901888#0 35773427#6 35773427#7 35900343#2 35900343#3 35903165#0 35903165#1 35903165#2 35903166#0 35903166#1 27131168#0 27131168#1 27131168#2 27131168#3 61279128#0 -61279142#1"/>
   </vehicle>
   <vehicle id="Rand10" depart="0">
      <route edges="-61424033#0 61424033#0 61424033#1 35901640#2 35901640#3 35901640#4 35901640#5 35901833#0 -43512942#2 -43512942#1+61326131#5 -43512942#0+61326131#6 61326131#0 23162032#2 23162032#3 23162032#4 23162032#5 23162032#6"/>
   </vehicle>
   <vehicle id="Rand100" depart="0">
      <route edges="27617860 23162032#4 23162032#5 35902125#0 27617850#2 27617865#0"/>
   </vehicle>
   <vehicle id="Rand101" depart="0">
      <route edges="-61424033#1 61424033#1 35901640#2 35901640#3 35901640#4 35901640#5 35901833#0 -43512942#2 -43512942#1+61326131#5 -43512942#0+61326131#6 61326131#0 23162032#2 35901912#2 35902785#3"/>
   </vehicle>
   <vehicle id="Rand102" depart="0">
      <route edges="-30098184#5 30098184#5 27617850#4 27617860 27617819#0 27617819#1 27617819#2 27617819#3"/>
   </vehicle>
   <vehicle id="Rand103" depart="0">
      <route edges="61326131#0 23162032#2 -35901912#1 35901883#0 27617819#2 27617819#3 27617819#4 35903165#0 35903165#1 35903165#2 30098199#2 30098199#3 30098199#4 30098199#5 30098199#6 35900343#0 34474997#0 34474997#1 35900161"/>
   </vehicle>
   <vehicle id="Rand105" depart="0">
      <route edges="35773427#6 35773427#7 35900343#2 35900343#3 35900343#4 35901640#5 35901640#6 35901640#0 35901640#1 35901640#2"/>
   </vehicle>
   <vehicle id="Rand106" depart="0">
      <route edges="27617865#1 -27617865#1 -27617865#0 27617850#3 -30098184#5 -30098184#4 30098185#3"/>
   </vehicle>
   <vehicle id="Rand107" depart="0">
      <route edges="23162032#2 23162032#3 27617819#0 -30098185#3 -30098185#2 -30098185#1"/>
   </vehicle>
   <vehicle id="Rand108" depart="0">
      <route edges="30098199#2 30098199#3 30098199#4 30098199#5 30098199#6 35900343#0 34474997#0 34474997#1 35900161"/>
   </vehicle>
   <vehicle id="Rand109" depart="0">
      <route edges="27617850#3 -30098184#5 -30098184#4 -30098184#3 -30098184#2 -30098184#1 -30098184#0 35900343#3 35900343#4 35901640#5 35901640#6 35901640#0 35901640#1 30098199#0 -30098198 30098198"/>
   </vehicle>
   <vehicle id="Rand11" depart="0">
      <route edges="27131168#2 27131168#3 27131168#4 35903338#0 35903338#1 30098199#5 30098199#6 35900338#1 35900338#2 35901640#4"/>
   </vehicle>
   <vehicle id="Rand12" depart="0">
      <route edges="30098184#0 -30098184#0"/>
   </vehicle>
   <vehicle id="Rand13" depart="0">
      <route edges="-61326131#2+23162032#0 -61326131#1+23162032#1 23162032#2 -35901912#1 35901883#0"/>
   </vehicle>
   <vehicle id="Rand14" depart="0">
      <route edges="30098185#3 -27617819#0 23162032#4 23162032#5 23162032#6 35773427#0"/>
   </vehicle>
   <vehicle id="Rand15" depart="0">
      <route edges="35901888#1 -30098184#1 -30098184#0 35900343#3 35903165#0 35903165#1 35903165#2 30098199#2 30098199#3 30098199#4 -35903338#1 61335135#1"/>
   </vehicle>
   <vehicle id="Rand16" depart="0">
      <route edges="35773427#5 35773427#6 35773427#7 35900343#2 35900343#3 35903165#0 35903165#1 35903165#2 30098199#2 30098199#3 30098199#4 -35903338#1 35903338#1"/>
   </vehicle>
   <vehicle id="Rand17" depart="0">
      <route edges="-35901912#0 35901912#0 35901912#1 23162032#3 23162032#4 23162032#5 35902125#0"/>
   </vehicle>
   <vehicle id="Rand18" depart="0">
      <route edges="34474997#0 34474997#1 35901888#0 35773427#6 35773427#7 35900343#2 35900343#3 35903165#0 35903165#1 35903165#2 30098199#2 30098199#3 30098199#4 -35903338#1 35903338#1"/>
   </vehicle>
   <vehicle id="Rand19" depart="0">
      <route edges="35901883#1 30098184#3 30098184#4 30098184#5 -27617850#3 -27617850#2"/>
   </vehicle>
   <vehicle id="Rand2" depart="0">
      <route edges="-43512942#0+61326131#6 61326131#0 23162032#2 23162032#3 23162032#4 23162032#5 23162032#6 35773427#0 35773427#1"/>
   </vehicle>
   <vehicle id="Rand20" depart="0">
      <route edges="35901640#0 35901640#1 35901640#2 35901640#3 35901640#4 35901640#5 35901833#0 -43512942#2 -43512942#1+61326131#5 -43512942#0+61326131#6 61326131#0 23162032#2 23162032#3 27617819#0 -30098185#3 -30098185#2"/>
   </vehicle>
   <vehicle id="Rand21" depart="0">
      <route edges="-27617819#2 -27617819#1 -27617819#0 23162032#4 -30098184#6 -27617850#3"/>
   </vehicle>
   <vehicle id="Rand23" depart="0">
      <route edges="35903165#2 30098199#2 30098199#3 30098199#4 30098199#5 30098199#6 35900343#0 34474997#0 34474997#1 34474997#2 34474997#3"/>
   </vehicle>
   <vehicle id="Rand24" depart="0">
      <route edges="-35901912#0 35901912#0 35901883#0 35901883#1 -30098184#2 -30098184#1 30098184#1"/>
   </vehicle>
   <vehicle id="Rand25" depart="0">
      <route edges="-35773427#0 35773427#0 35773427#1 35773427#2 35773427#3 35773427#4 35773427#5 35773427#6 35773427#7 -35773427#7"/>
   </vehicle>
   <vehicle id="Rand26" depart="0">
      <route edges="35903338#1 30098199#5 30098199#6 35900343#0 35900343#1 35900343#2 35900343#3 35900343#4 35901640#5 35901640#6 35901640#0 35901640#1 -61424033#1 -61424033#0 61424033#0"/>
   </vehicle>
   <vehicle id="Rand27" depart="0">
      <route edges="35902125#2 35902125#3 30098185#2 -30098184#3 -30098184#2 -30098184#1 -30098184#0 35900343#3 35903165#0 35903165#1 35903165#2 35903166#0 35903166#1 27131168#0 27131168#1 -61278965 61279142#1"/>
   </vehicle>
   <vehicle id="Rand28" depart="0">
      <route edges="35773427#5 35773427#6 35773427#7 35900343#2"/>
   </vehicle>
   <vehicle id="Rand29" depart="0">
      <route edges="35903165#0 35903165#1 35903165#2 30098199#2 30098199#3 30098199#4 30098199#5 30098199#6 35900343#0 35900343#1 35900343#2 35900343#3"/>
   </vehicle>
   <vehicle id="Rand3" depart="0">
      <route edges="30098185#1 -30098185#1 35773427#4 35901883#4"/>
   </vehicle>
   <vehicle id="Rand30" depart="0">
      <route edges="-30098184#2 -30098184#1"/>
   </vehicle>
   <vehicle id="Rand31" depart="0">
      <route edges="-30098184#2 30098184#2 30098184#3 30098184#4 30098184#5 30098184#6 23162032#5 23162032#6 35773427#0 35773427#1"/>
   </vehicle>
   <vehicle id="Rand32" depart="0">
      <route edges="30098184#1 -30098184#1 35902564#1 35902564#2"/>
   </vehicle>
   <vehicle id="Rand33" depart="0">
      <route edges="27131168#0 27131168#1 27131168#2 27131168#3 27131168#4 35903338#0 35903338#1 30098199#5 30098199#6 35900343#0 35900343#1 35900343#2 35900343#3 35900343#4 35901640#5 35901640#6 35901640#0 35901640#1 30098199#0 -30098198 27617828#2"/>
   </vehicle>
   <vehicle id="Rand34" depart="0">
      <route edges="-30098185#2 30098185#2 30098185#3 27617819#1 27617819#2 35901888#3 35901912#0 35901883#0"/>
   </vehicle>
   <vehicle id="Rand35" depart="0">
      <route edges="-35773427#2 35773427#2 35773427#3 35773427#4 35773427#5 35773427#6 35773427#7 35900343#2 35900343#3 35900343#4 35901640#5 35901640#6 35901640#0 35901640#1"/>
   </vehicle>
   <vehicle id="Rand36" depart="0">
      <route edges="35901883#1 -30098184#2 -30098184#1 -30098184#0 35900343#3 35903165#0 35903165#1 35903165#2 35903166#0 35903166#1 27131168#0 27131168#1 -61278965 61279142#1"/>
   </vehicle>
   <vehicle id="Rand37" depart="0">
      <route edges="34474997#5 -27617865#2 35773427#2 35773427#3 35773427#4 35773427#5 35773427#6 35773427#7 35900343#2 35900343#3 35903165#0 35903165#1 35903165#2 35903166#0 35903166#1 27131168#0 27131168#1 27131168#2 27131168#3 27131168#4 27131168#5"/>
   </vehicle>
   <vehicle id="Rand4" depart="0">
      <route edges="35900343#0 35900343#1 35900343#2 35900343#3 35903165#0 35903165#1 35903165#2 35903166#0 35903166#1 27131168#0 -61334631 61334631"/>
   </vehicle>
   <vehicle id="Rand41" depart="0">
      <route edges="-30098185#1 35773427#4 35773427#5 35773427#6 35773427#7 35900343#2 35900343#3 35903165#0 35903165#1 35903165#2 35903166#0 35903166#1 27131168#0 27131168#1 -35903198#1"/>
   </vehicle>
   <vehicle id="Rand42" depart="0">
      <route edges="34474997#2 34474997#3 34474997#4 34474997#5 -27617865#2 -27617865#1 35902125#2"/>
   </vehicle>
   <vehicle id="Rand43" depart="0">
      <route edges="-43512942#0+61326131#6 61326131#0 23162032#2 -35901912#1 35901883#0 27617819#2 27617819#3 27617819#4 35900343#4 35901640#5 35901833#0"/>
   </vehicle>
   <vehicle id="Rand44" depart="0">
      <route edges="27617865#0 -27617865#0"/>
   </vehicle>
   <vehicle id="Rand46" depart="0">
      <route edges="35900161 -35900161 34474997#2 34474997#3 30098185#0 -30098185#0"/>
   </vehicle>
   <vehicle id="Rand47" depart="0">
      <route edges="-35773427#4 30098185#1 30098185#2 30098184#4 35902033#1"/>
   </vehicle>
   <vehicle id="Rand48" depart="0">
      <route edges="35902033#0 -30098184#4 -30098184#3 -30098184#2 -30098184#1 -30098184#0 35900343#3 35903165#0 35903165#1 35903165#2 30098199#2 30098199#3"/>
   </vehicle>
   <vehicle id="Rand49" depart="0">
      <route edges="35900338#0 35900343#0 35900343#1 35900343#2 30098184#0 30098184#1 30098184#2"/>
   </vehicle>
   <vehicle id="Rand5" depart="0">
      <route edges="61335135#2 -35903198#0 30098199#3 30098199#4 30098199#5 30098199#6 35900343#0 34474997#0 34474997#1 34474997#2 34474997#3 34474997#4 34474997#5 -27617865#2 -35773427#1 -35773427#0"/>
   </vehicle>
   <vehicle id="Rand50" depart="0">
      <route edges="-61279128#1 -61279128#0 27131168#4 35903338#0 35903338#1 30098199#5 30098199#6 35900343#0 35900343#1 35900343#2 35900343#3 35900343#4 35901640#5 35901640#6 35901640#0 35901640#1 -61424033#1 27617828#0 -61291538 61291538"/>
   </vehicle>
   <vehicle id="Rand51" depart="0">
      <route edges="-35773427#7 35902564#2 34474997#1 34474997#2 34474997#3 34474997#4 34474997#5 -27617865#2 -35773427#1 27617850#1"/>
   </vehicle>
   <vehicle id="Rand52" depart="0">
      <route edges="35900338#0 35900343#0 34474997#0 34474997#1 35901888#0 35901888#1"/>
   </vehicle>
   <vehicle id="Rand53" depart="0">
      <route edges="35903166#1 27131168#0 27131168#1 -35903198#1 -35903198#0 30098199#3 30098199#4"/>
   </vehicle>
   <vehicle id="Rand54" depart="0">
      <route edges="30098199#6 35900343#0 34474997#0 34474997#1 34474997#2 34474997#3 34474997#4 34474997#5 -27617865#2 -27617865#1 -27617865#0 27617850#3 30098184#6"/>
   </vehicle>
   <vehicle id="Rand55" depart="0">
      <route edges="35901888#2 27617819#3 27617819#4 35903165#0 35903165#1 35903165#2 35903166#0 35903166#1 -43512899 43512899"/>
   </vehicle>
   <vehicle id="Rand56" depart="0">
      <route edges="-27617819#0 27617819#0 27617819#1 27617819#2 27617819#3 27617819#4 35903165#0 35903165#1 35903165#2 30098199#2 30098199#3 35903288#0"/>
   </vehicle>
   <vehicle id="Rand57" depart="0">
      <route edges="-61334631 61334631 27131168#1 -35903198#1 61335135#3 35903166#1 -43512899"/>
   </vehicle>
   <vehicle id="Rand58" depart="0">
      <route edges="27617819#0 -27617819#0 23162032#4 -30098184#6 -30098184#5 35902033#1 35902125#3"/>
   </vehicle>
   <vehicle id="Rand59" depart="0">
      <route edges="61334631 27131168#1 -35903198#1 61335135#3 35903166#1"/>
   </vehicle>
   <vehicle id="Rand6" depart="0">
      <route edges="23162032#6 35773427#0 27617850#1 27617850#2 27617850#3 -30098184#5 -30098184#4 -30098184#3 -30098184#2 -30098184#1 -30098184#0 35900343#3 35900343#4 35901640#5 35901640#6 35901640#0"/>
   </vehicle>
   <vehicle id="Rand61" depart="0">
      <route edges="35901912#1 -35901912#1 35901883#0 27617819#2 27617819#3 27617819#4 35903165#0 35903165#1 35903165#2 35903166#0 35903166#1 27131168#0 27131168#1 27131168#2"/>
   </vehicle>
   <vehicle id="Rand62" depart="0">
      <route edges="34474997#1 35901888#0 35773427#6 35773427#7 35900343#2 35900343#3 35903165#0 35903165#1 35903165#2 30098199#2 35903198#0 -35903198#0"/>
   </vehicle>
   <vehicle id="Rand63" depart="0">
      <route edges="61424033#0 61424033#1 30098199#0 30098199#1 30098199#2 30098199#3 30098199#4 30098199#5 30098199#6 35900343#0 34474997#0 34474997#1 34474997#2 34474997#3 34474997#4 34474997#5 -27617865#2 -35773427#1"/>
   </vehicle>
   <vehicle id="Rand64" depart="0">
      <route edges="-30098184#6 -30098184#5 -30098184#4 -30098184#3 -30098184#2 -30098184#1 -30098184#0 35900343#3 35903165#0 35903165#1 35903165#2 35903166#0 35903166#1 27131168#0 27131168#1 27131168#2 27131168#3"/>
   </vehicle>
   <vehicle id="Rand65" depart="0">
      <route edges="23162032#3 27617819#0 -30098185#3 -30098184#3 -30098184#2 -30098184#1 -30098184#0 30098184#0"/>
   </vehicle>
   <vehicle id="Rand66" depart="0">
      <route edges="-61424033#0 61424033#0 61424033#1 35901640#2 35901640#3 35901640#4 35901640#5 35901833#0 -43512942#2 -43512942#1+61326131#5 -43512942#0+61326131#6 61326131#0 23162032#2 23162032#3 23162032#4 -30098184#6 -30098184#5 35902033#1"/>
   </vehicle>
   <vehicle id="Rand67" depart="0">
      <route edges="30098199#6 35900343#0 35900343#1 35900343#2 30098184#0 30098184#1 30098184#2 30098184#3 30098184#4 -30098184#4"/>
   </vehicle>
   <vehicle id="Rand68" depart="0">
      <route edges="-27617850#4 -30098184#5 -30098184#4 -30098184#3 35901883#2"/>
   </vehicle>
   <vehicle id="Rand69" depart="0">
      <route edges="-27617850#4 -30098184#5 -30098184#4 -30098184#3 -30098184#2 -30098184#1 -30098184#0 35900343#3 35900343#4 35901640#5 35901640#6 35901640#0 35901640#1 -61424033#1 27617828#0 27617828#1"/>
   </vehicle>
   <vehicle id="Rand7" depart="0">
      <route edges="61335135#1 35903288#1 27131168#3 27131168#4 35903338#0 35903338#1 30098199#5 30098199#6 35900343#0 35900343#1 35900343#2 35900343#3 35900343#4 35901640#5 35901640#6 35901640#0 35901640#1 30098199#0 -30098198"/>
   </vehicle>
   <vehicle id="Rand70" depart="0">
      <route edges="52491207 61335135#0 35903338#1 30098199#5 30098199#6 35900343#0 35900343#1 35900343#2 35900343#3 35900343#4 35901640#5 35901833#0 -43512942#2"/>
   </vehicle>
   <vehicle id="Rand71" depart="0">
      <route edges="30098199#6 35900343#0 35900343#1 35900343#2 35900343#3 35900343#4 35901640#5 35901640#6 35901640#0 35901640#1 -61424033#1 -61424033#0 61424033#0"/>
   </vehicle>
   <vehicle id="Rand72" depart="0">
      <route edges="35901883#0 -27617819#1 -27617819#0 23162032#4 -30098184#6 -30098184#5 35902033#1 35902033#2 -35773427#2"/>
   </vehicle>
   <vehicle id="Rand73" depart="0">
      <route edges="-43512942#0+61326131#6 35782161#1"/>
   </vehicle>
   <vehicle id="Rand74" depart="0">
      <route edges="30098185#0 35773427#4 35773427#5 35773427#6 35773427#7 35900343#2 35900343#3 35903165#0 35903165#1 35903165#2 30098199#2 30098199#3 30098199#4 -35903338#1 35903338#1"/>
   </vehicle>
   <vehicle id="Rand75" depart="0">
      <route edges="61279142#1 -61279128#0 27131168#4 35903338#0 35903338#1 30098199#5 30098199#6 35900343#0 35900343#1 35900343#2 30098184#0 30098184#1 35901888#2"/>
   </vehicle>
   <vehicle id="Rand76" depart="0">
      <route edges="35901888#3 35901912#0 35901912#1 23162032#3 27617819#0 -30098185#3 -30098185#2"/>
   </vehicle>
   <vehicle id="Rand77" depart="0">
      <route edges="35902651#0+35902785#1 35902651#1 27617819#0 -30098185#3 30098185#3"/>
   </vehicle>
   <vehicle id="Rand78" depart="0">
      <route edges="-35773427#3 35773427#3 35773427#4 35773427#5 35773427#6 35773427#7 35900343#2 35900343#3 35903165#0 35903165#1 35903165#2 35903166#0"/>
   </vehicle>
   <vehicle id="Rand79" depart="0">
      <route edges="34474997#1 34474997#2 34474997#3 30098185#0 30098185#1"/>
   </vehicle>
   <vehicle id="Rand8" depart="0">
      <route edges="35773427#6 35902564#2 34474997#1 34474997#2 34474997#3 34474997#4 34474997#5 -27617865#2 -27617865#1 -27617865#0 27617850#3 27617850#4 27617860"/>
   </vehicle>
   <vehicle id="Rand80" depart="0">
      <route edges="35902033#0 -30098184#4 -30098184#3 -30098184#2 -30098184#1 -30098184#0 35900343#3 35903165#0 35903165#1 35903165#2 30098199#2 30098199#3 35903288#0"/>
   </vehicle>
   <vehicle id="Rand81" depart="0">
      <route edges="35782161#1 35901912#0 35901883#0 27617819#2 27617819#3 27617819#4 35903165#0 35903165#1 35903165#2 30098199#2 30098199#3 30098199#4 30098199#5 30098199#6 35900343#0 34474997#0 34474997#1 35900161 -35900161"/>
   </vehicle>
   <vehicle id="Rand82" depart="0">
      <route edges="-35773427#7 35773427#7 35900343#2 35900343#3 35903165#0 35903165#1 35903165#2 35903166#0 35903166#1 27131168#0 -61334631"/>
   </vehicle>
   <vehicle id="Rand83" depart="0">
      <route edges="27617819#1 -27617819#1 -27617819#0 23162032#4 -30098184#6 27617850#4 -27617850#4"/>
   </vehicle>
   <vehicle id="Rand84" depart="0">
      <route edges="35903166#1 27131168#0 27131168#1 27131168#2 27131168#3 27131168#4 35903338#0 35903338#1 30098199#5 30098199#6 35900343#0 35900343#1 35900343#2 35900343#3 35903165#0"/>
   </vehicle>
   <vehicle id="Rand85" depart="0">
      <route edges="-61326131#2+23162032#0 -61326131#1+23162032#1 23162032#2 -35901912#1 35901883#0 27617819#2 27617819#3 27617819#4 35900343#4 35901640#5 35901640#6"/>
   </vehicle>
   <vehicle id="Rand86" depart="0">
      <route edges="-30098184#5 30098184#5 27617850#4 27617860 27617819#0 27617819#1 27617819#2 35901888#3 35901912#0 35901912#1 35901912#2 35902785#3 -61326131#2+23162032#0"/>
   </vehicle>
   <vehicle id="Rand87" depart="0">
      <route edges="35903198#0 -35903198#0 30098199#3 30098199#4 30098199#5 30098199#6 35900343#0 35900343#1 35900343#2 35900343#3 35900343#4 35901640#5 35901833#0 -43512942#2 -43512942#1+61326131#5 -43512942#0+61326131#6 35782161#1"/>
   </vehicle>
   <vehicle id="Rand88" depart="0">
      <route edges="27617828#0 27617828#1 27617828#2 27131168#0 27131168#1 27131168#2 27131168#3 27131168#4 35903338#0 35903338#1 30098199#5 30098199#6 35900343#0 35900343#1 35900343#2 35900343#3 35900343#4 35901640#5 35901833#0 -43512942#2 -43512942#1+61326131#5 -43512942#0+61326131#6 35782161#1"/>
   </vehicle>
   <vehicle id="Rand89" depart="0">
      <route edges="-35901912#1 35901883#0 27617819#2 27617819#3 27617819#4 35903165#0 35903165#1 35903165#2 30098199#2 30098199#3 35903288#0 61335135#2"/>
   </vehicle>
   <vehicle id="Rand9" depart="0">
      <route edges="27617819#1 27617819#2 27617819#3 27617819#4 35903165#0 35903165#1 35903165#2 30098199#2 30098199#3 35903288#0 61335135#2"/>
   </vehicle>
   <vehicle id="Rand92" depart="0">
      <route edges="-27617865#0 27617865#0 27617865#1 35773427#2 35773427#3"/>
   </vehicle>
   <vehicle id="Rand93" depart="0">
      <route edges="30098199#3 30098199#4 30098199#5 30098199#6 35900343#0 35900343#1 35900343#2 35900343#3 35900343#4 35901640#5 35901833#0 -43512942#2 -43512942#1+61326131#5 -61326131#5+43512942#1"/>
   </vehicle>
   <vehicle id="Rand94" depart="0">
      <route edges="35902785#0 35902651#0+35902785#1 35902651#1 27617819#0 -30098185#3 -30098184#3 35901883#2 35901883#3 35773427#5"/>
   </vehicle>
   <vehicle id="Rand95" depart="0">
      <route edges="-30098184#0 30098184#0 30098184#1 30098184#2 30098184#3 30098184#4 35902033#1 35902033#2"/>
   </vehicle>
   <vehicle id="Rand96" depart="0">
      <route edges="-35773427#2 35773427#2 35773427#3 35773427#4 35773427#5 35773427#6 35773427#7 35900343#2 35900343#3 35903165#0 35903165#1 23161464#1"/>
   </vehicle>
   <vehicle id="Rand97" depart="0">
      <route edges="30098184#6 23162032#5 35902125#0 27617850#2 27617865#0 27617865#1 -35773427#1"/>
   </vehicle>
   <vehicle id="Rand99" depart="0">
      <route edges="35773427#7 -35773427#7 35902564#2 34474997#1 34474997#2 34474997#3 34474997#4 34474997#5 -27617865#2 -35773427#1 -27617850#0 27617850#0"/>
   </vehicle>
</routes>
