<additional>
   <tl-logic id="303275664" type="static" programID="1" offset="0">
       <phase duration="5" state="GGGgrrrGGgg"/>
       <phase duration="5" state="yyygrrryygg"/>
       <phase duration="45" state="rrrGrrrrrGG"/>
       <phase duration="5" state="rrryrrrrryy"/>
       <phase duration="46" state="rrrrGGGrrrr"/>
       <phase duration="50" state="rrrryyyrrrr"/>
   </tl-logic>
   <tl-logic id="303275904" type="static" programID="1" offset="0">
       <phase duration="5" state="GGrr"/>
       <phase duration="5" state="yyrr"/>
       <phase duration="35" state="rrGG"/>
       <phase duration="5" state="rryy"/>
   </tl-logic>
   <tl-logic id="303275910" type="static" programID="1" offset="0">
       <phase duration="13" state="GGrr"/>
       <phase duration="5" state="yyrr"/>
       <phase duration="8" state="rrGG"/>
       <phase duration="8" state="rryy"/>
   </tl-logic>
   <tl-logic id="303276132" type="static" programID="1" offset="0">
       <phase duration="32" state="GGGrrggrr"/>
       <phase duration="50" state="yyyrrggrr"/>
       <phase duration="5" state="rrrrrGGrr"/>
       <phase duration="23" state="rrrrryyrr"/>
       <phase duration="50" state="rrrGGrrgg"/>
       <phase duration="50" state="rrryyrrgg"/>
       <phase duration="50" state="rrrrrrrGG"/>
       <phase duration="39" state="rrrrrrryy"/>
   </tl-logic>
   <tl-logic id="303278164" type="static" programID="1" offset="0">
       <phase duration="50" state="GGgGggrrr"/>
       <phase duration="50" state="yygyggrrr"/>
       <phase duration="47" state="rrGrGGrrr"/>
       <phase duration="50" state="rryryyrrr"/>
       <phase duration="50" state="GrrrrrGGg"/>
       <phase duration="40" state="yrrrrryyy"/>
   </tl-logic>
   <tl-logic id="303278502" type="static" programID="1" offset="0">
       <phase duration="50" state="GGGG"/>
       <phase duration="14" state="yyyy"/>
   </tl-logic>
   <tl-logic id="331525908" type="static" programID="1" offset="0">
       <phase duration="33" state="GgGrr"/>
       <phase duration="5" state="yyyrr"/>
       <phase duration="50" state="rrGGG"/>
       <phase duration="5" state="rryyy"/>
   </tl-logic>
   <tl-logic id="331525911" type="static" programID="1" offset="0">
       <phase duration="10" state="GggrrrGGg"/>
       <phase duration="50" state="yggrrryyg"/>
       <phase duration="20" state="rGGrrrrrG"/>
       <phase duration="50" state="ryyrrrrry"/>
       <phase duration="49" state="rrrGGgGrr"/>
       <phase duration="50" state="rrryyyyrr"/>
   </tl-logic>
   <tl-logic id="331526235" type="static" programID="1" offset="0">
       <phase duration="5" state="GGrr"/>
       <phase duration="48" state="yyrr"/>
       <phase duration="50" state="rrGG"/>
       <phase duration="5" state="rryy"/>
   </tl-logic>
   <tl-logic id="418234858" type="static" programID="1" offset="0">
       <phase duration="44" state="GgGrr"/>
       <phase duration="45" state="yyyrr"/>
       <phase duration="50" state="rrGGG"/>
       <phase duration="5" state="rryyy"/>
   </tl-logic>
   <tl-logic id="418376981" type="static" programID="1" offset="0">
       <phase duration="50" state="GGgrrrGgg"/>
       <phase duration="5" state="yygrrrygg"/>
       <phase duration="5" state="rrGrrrrGG"/>
       <phase duration="5" state="rryrrrryy"/>
       <phase duration="5" state="rrrGGGrrr"/>
       <phase duration="50" state="rrryyyrrr"/>
   </tl-logic>
   <tl-logic id="419625737" type="static" programID="1" offset="0">
       <phase duration="49" state="GGGGrrrr"/>
       <phase duration="5" state="yyyyrrrr"/>
       <phase duration="5" state="rrrrGGGG"/>
       <phase duration="50" state="rrrryyyy"/>
   </tl-logic>
   <tl-logic id="419630409" type="static" programID="1" offset="0">
       <phase duration="34" state="GGrr"/>
       <phase duration="5" state="yyrr"/>
       <phase duration="5" state="rrGG"/>
       <phase duration="50" state="rryy"/>
   </tl-logic>
   <tl-logic id="419632850" type="static" programID="1" offset="0">
       <phase duration="37" state="GGrr"/>
       <phase duration="50" state="yyrr"/>
       <phase duration="46" state="rrGG"/>
       <phase duration="40" state="rryy"/>
   </tl-logic>
   <tl-logic id="419640934" type="static" programID="1" offset="0">
       <phase duration="48" state="GG"/>
       <phase duration="5" state="yy"/>
   </tl-logic>
   <tl-logic id="419640940" type="static" programID="1" offset="0">
       <phase duration="50" state="GGGG"/>
       <phase duration="50" state="yyyy"/>
   </tl-logic>
   <tl-logic id="419640944" type="static" programID="1" offset="0">
       <phase duration="50" state="GGrr"/>
       <phase duration="50" state="yyrr"/>
       <phase duration="5" state="rrGG"/>
       <phase duration="50" state="rryy"/>
   </tl-logic>
   <tl-logic id="419640946" type="static" programID="1" offset="0">
       <phase duration="50" state="GGGG"/>
       <phase duration="5" state="yyyy"/>
   </tl-logic>
   <tl-logic id="419641100" type="static" programID="1" offset="0">
       <phase duration="5" state="GGrr"/>
       <phase duration="5" state="yyrr"/>
       <phase duration="45" state="rrGG"/>
       <phase duration="50" state="rryy"/>
   </tl-logic>
   <tl-logic id="419641199" type="static" programID="1" offset="0">
       <phase duration="5" state="GGrr"/>
       <phase duration="37" state="yyrr"/>
       <phase duration="50" state="rrGG"/>
       <phase duration="50" state="rryy"/>
   </tl-logic>
   <tl-logic id="419641406" type="static" programID="1" offset="0">
       <phase duration="10" state="GGgGrrr"/>
       <phase duration="5" state="yyyyrrr"/>
       <phase duration="5" state="rrrGGGG"/>
       <phase duration="5" state="rrryyyy"/>
   </tl-logic>
   <tl-logic id="419641424" type="static" programID="1" offset="0">
       <phase duration="50" state="GGGGrrr"/>
       <phase duration="6" state="yyyyrrr"/>
       <phase duration="5" state="GrrrGGg"/>
       <phase duration="28" state="yrrryyy"/>
   </tl-logic>
   <tl-logic id="419646058" type="static" programID="1" offset="0">
       <phase duration="49" state="GGGrrr"/>
       <phase duration="5" state="yyyrrr"/>
       <phase duration="5" state="GrrGGg"/>
       <phase duration="5" state="yrryyy"/>
   </tl-logic>
   <tl-logic id="419646059" type="static" programID="1" offset="0">
       <phase duration="5" state="rrrGggGGg"/>
       <phase duration="11" state="rrryggyyg"/>
       <phase duration="6" state="rrrrGGrrG"/>
       <phase duration="5" state="rrrryyrry"/>
       <phase duration="49" state="GGGrrrrrr"/>
       <phase duration="5" state="yyyrrrrrr"/>
   </tl-logic>
   <tl-logic id="419646198" type="static" programID="1" offset="0">
       <phase duration="50" state="GGGGrrrggg"/>
       <phase duration="49" state="yyyyrrrggg"/>
       <phase duration="5" state="rrrrrrrGGG"/>
       <phase duration="34" state="rrrrrrryyy"/>
       <phase duration="5" state="rrrrGGGrrr"/>
       <phase duration="46" state="rrrryyyrrr"/>
   </tl-logic>
   <tl-logic id="419652684" type="static" programID="1" offset="0">
       <phase duration="9" state="GGgrrrGgg"/>
       <phase duration="48" state="yygrrrygg"/>
       <phase duration="50" state="rrGrrrrGG"/>
       <phase duration="5" state="rryrrrryy"/>
       <phase duration="5" state="rrrGGGrrr"/>
       <phase duration="5" state="rrryyyrrr"/>
   </tl-logic>
   <tl-logic id="419656024" type="static" programID="1" offset="0">
       <phase duration="50" state="rrrGggGGg"/>
       <phase duration="5" state="rrryggyyg"/>
       <phase duration="7" state="rrrrGGrrG"/>
       <phase duration="5" state="rrrryyrry"/>
       <phase duration="5" state="GGGrrrrrr"/>
       <phase duration="50" state="yyyrrrrrr"/>
   </tl-logic>
   <tl-logic id="419656030" type="static" programID="1" offset="0">
       <phase duration="39" state="GGgrrrGgg"/>
       <phase duration="50" state="yygrrrygg"/>
       <phase duration="50" state="rrGrrrrGG"/>
       <phase duration="50" state="rryrrrryy"/>
       <phase duration="37" state="rrrGGGrrr"/>
       <phase duration="5" state="rrryyyrrr"/>
   </tl-logic>
   <tl-logic id="419656038" type="static" programID="1" offset="0">
       <phase duration="50" state="rrrGggGGg"/>
       <phase duration="50" state="rrryggyyg"/>
       <phase duration="50" state="rrrrGGrrG"/>
       <phase duration="5" state="rrrryyrry"/>
       <phase duration="50" state="GGGrrrrrr"/>
       <phase duration="44" state="yyyrrrrrr"/>
   </tl-logic>
   <tl-logic id="419656062" type="static" programID="1" offset="0">
       <phase duration="23" state="GGggrrrrGGggrrrr"/>
       <phase duration="5" state="yyggrrrryyggrrrr"/>
       <phase duration="6" state="rrGGrrrrrrGGrrrr"/>
       <phase duration="5" state="rryyrrrrrryyrrrr"/>
       <phase duration="5" state="rrrrGGggrrrrGGgg"/>
       <phase duration="42" state="rrrryyggrrrryygg"/>
       <phase duration="44" state="rrrrrrGGrrrrrrGG"/>
       <phase duration="5" state="rrrrrryyrrrrrryy"/>
   </tl-logic>
   <tl-logic id="419656076" type="static" programID="1" offset="0">
       <phase duration="47" state="GGggrrrrGGggrrrr"/>
       <phase duration="12" state="yyggrrrryyggrrrr"/>
       <phase duration="50" state="rrGGrrrrrrGGrrrr"/>
       <phase duration="50" state="rryyrrrrrryyrrrr"/>
       <phase duration="50" state="rrrrGGggrrrrGGgg"/>
       <phase duration="19" state="rrrryyggrrrryygg"/>
       <phase duration="5" state="rrrrrrGGrrrrrrGG"/>
       <phase duration="50" state="rrrrrryyrrrrrryy"/>
   </tl-logic>
   <tl-logic id="419659496" type="static" programID="1" offset="0">
       <phase duration="46" state="rrrGggGGg"/>
       <phase duration="50" state="rrryggyyg"/>
       <phase duration="50" state="rrrrGGrrG"/>
       <phase duration="42" state="rrrryyrry"/>
       <phase duration="39" state="GGGrrrrrr"/>
       <phase duration="47" state="yyyrrrrrr"/>
   </tl-logic>
   <tl-logic id="419659665" type="static" programID="1" offset="0">
       <phase duration="50" state="GGgrrGGg"/>
       <phase duration="48" state="yyyrryyy"/>
       <phase duration="49" state="rrrGGrrr"/>
       <phase duration="50" state="rrryyrrr"/>
   </tl-logic>
   <tl-logic id="419660087" type="static" programID="1" offset="0">
       <phase duration="50" state="GGGG"/>
       <phase duration="49" state="yyyy"/>
   </tl-logic>
   <tl-logic id="419674915" type="static" programID="1" offset="0">
       <phase duration="50" state="GGGrr"/>
       <phase duration="50" state="yyyrr"/>
       <phase duration="50" state="GrrGg"/>
       <phase duration="5" state="yrryy"/>
   </tl-logic>
   <tl-logic id="419677113" type="static" programID="1" offset="0">
       <phase duration="50" state="GGGG"/>
       <phase duration="50" state="yyyy"/>
   </tl-logic>
   <tl-logic id="419680393" type="static" programID="1" offset="0">
       <phase duration="50" state="GGGrrr"/>
       <phase duration="48" state="yyyrrr"/>
       <phase duration="50" state="GGrGGg"/>
       <phase duration="50" state="yyryyy"/>
   </tl-logic>
   <tl-logic id="549226071" type="static" programID="1" offset="0">
       <phase duration="5" state="GGGGrrr"/>
       <phase duration="5" state="yyyyrrr"/>
       <phase duration="5" state="GGrrGGg"/>
       <phase duration="5" state="yyrryyy"/>
   </tl-logic>
   <tl-logic id="549226082" type="static" programID="1" offset="0">
       <phase duration="5" state="GgGrr"/>
       <phase duration="40" state="yyyrr"/>
       <phase duration="50" state="rrGGG"/>
       <phase duration="14" state="rryyy"/>
   </tl-logic>
   <tl-logic id="766791450" type="static" programID="1" offset="0">
       <phase duration="44" state="gGgrrrGGg"/>
       <phase duration="32" state="gygrrryyg"/>
       <phase duration="8" state="GrGrrrrrG"/>
       <phase duration="43" state="yryrrrrry"/>
       <phase duration="5" state="rrrGGgrGr"/>
       <phase duration="14" state="rrryyyryr"/>
   </tl-logic>
</additional>
